<?xml version="1.0" encoding="UTF-8"?>

<!-- generated on 2026-01-10 20:49:10.276354 by Eclipse SUMO osmWebWizard.py v1_25_0+0000-ac6c5a6752d
<configuration>
    <net-file value="C:\Users\donsa\Sumo\2026-01-10-20-48-35\osm.net.xml.gz"/>
    <output-trip-file value="C:\Users\donsa\Sumo\2026-01-10-20-48-35\osm.motorcycle.trips.xml"/>
    <route-file value="C:\Users\donsa\Sumo\2026-01-10-20-48-35\osm.motorcycle.rou.xml"/>
    <prefix value="motorcycle"/>
    <trip-attributes value="departLane=&quot;best&quot;"/>
    <fringe-start-attributes value="departSpeed=&quot;max&quot;"/>
    <vehicle-class value="motorcycle"/>
    <fringe-factor value="7"/>
    <edge-permission value="motorcycle"/>
    <via-edge-types value="highway.motorway,highway.motorway_link,highway.trunk_link,highway.primary_link,highway.secondary_link,highway.tertiary_link"/>
    <seed value="44"/>
    <max-distance value="1200.0"/>
    <remove-loops value="True"/>
    <insertion-density value="22.0"/>
</configuration>
-->

<routes xmlns:xsi="http://www.w3.org/2001/XMLSchema-instance" xsi:noNamespaceSchemaLocation="http://sumo.dlr.de/xsd/routes_file.xsd">
    <vType id="motorcycle_motorcycle" vClass="motorcycle"/>
    <trip id="motorcycle0" depart="0.00" from="-337154621" to="1459430902#0" departLane="best" type="motorcycle_motorcycle" departSpeed="max"/>
    <trip id="motorcycle1" depart="0.90" from="-180207143" to="-112448569#2" departLane="best" type="motorcycle_motorcycle" departSpeed="max"/>
    <trip id="motorcycle2" depart="1.81" from="81146145#3" to="184869463#2" departLane="best" type="motorcycle_motorcycle"/>
    <trip id="motorcycle3" depart="2.71" from="-120358423#2" to="337154627#1" departLane="best" type="motorcycle_motorcycle"/>
    <trip id="motorcycle4" depart="3.61" from="112783314#0" to="-135739027" departLane="best" type="motorcycle_motorcycle" departSpeed="max"/>
    <trip id="motorcycle5" depart="4.51" from="671888452" to="-135737876" departLane="best" type="motorcycle_motorcycle"/>
    <trip id="motorcycle6" depart="5.42" from="120031043#5" to="798107755" departLane="best" type="motorcycle_motorcycle"/>
    <trip id="motorcycle7" depart="6.32" from="-180837170" to="-112783305#0" departLane="best" type="motorcycle_motorcycle" departSpeed="max"/>
    <trip id="motorcycle8" depart="7.22" from="135737876" to="28598645" departLane="best" type="motorcycle_motorcycle" departSpeed="max"/>
    <trip id="motorcycle9" depart="8.12" from="-458089198" to="-112654805#1" departLane="best" type="motorcycle_motorcycle" departSpeed="max"/>
    <trip id="motorcycle10" depart="9.03" from="169443995#1" to="200904705" departLane="best" type="motorcycle_motorcycle"/>
    <trip id="motorcycle11" depart="9.93" from="126253248" to="-421432016#0" departLane="best" type="motorcycle_motorcycle"/>
    <trip id="motorcycle12" depart="10.83" from="-180211674" to="1132359826" departLane="best" type="motorcycle_motorcycle" departSpeed="max"/>
    <trip id="motorcycle13" depart="11.73" from="-220294114#2" to="286939358" departLane="best" type="motorcycle_motorcycle"/>
    <trip id="motorcycle14" depart="12.64" from="85691133#0" to="-567661914#1" departLane="best" type="motorcycle_motorcycle"/>
    <trip id="motorcycle15" depart="13.54" from="-374179013" to="-112783305#0" departLane="best" type="motorcycle_motorcycle" departSpeed="max"/>
    <trip id="motorcycle16" depart="14.44" from="-172333269#3" to="180205048" departLane="best" type="motorcycle_motorcycle"/>
    <trip id="motorcycle17" depart="15.34" from="-688745781" to="374179013" departLane="best" type="motorcycle_motorcycle" departSpeed="max"/>
    <trip id="motorcycle18" depart="16.25" from="-649070251" to="-257759242#7" departLane="best" type="motorcycle_motorcycle" departSpeed="max"/>
    <trip id="motorcycle19" depart="17.15" from="-200301564" to="-85704892#1" departLane="best" type="motorcycle_motorcycle" departSpeed="max"/>
    <trip id="motorcycle20" depart="18.05" from="-81146155#2" to="661602226#1" departLane="best" type="motorcycle_motorcycle"/>
    <trip id="motorcycle21" depart="18.95" from="-120353053#4" to="-212392696#1" departLane="best" type="motorcycle_motorcycle"/>
    <trip id="motorcycle22" depart="19.86" from="-120362332#2" to="112655407#0" departLane="best" type="motorcycle_motorcycle"/>
    <trip id="motorcycle23" depart="20.76" from="180208471#2" to="-24683729#9" departLane="best" type="motorcycle_motorcycle"/>
    <trip id="motorcycle24" depart="21.66" from="-798110191#1" to="303142750#0" departLane="best" type="motorcycle_motorcycle" departSpeed="max"/>
    <trip id="motorcycle25" depart="22.56" from="112654805#3" to="133051053#2" departLane="best" type="motorcycle_motorcycle"/>
    <trip id="motorcycle26" depart="23.47" from="-649966504" to="622814978" departLane="best" type="motorcycle_motorcycle" departSpeed="max"/>
    <trip id="motorcycle27" depart="24.37" from="-121782640#4" to="646233948" departLane="best" type="motorcycle_motorcycle"/>
    <trip id="motorcycle28" depart="25.27" from="184870767#0" to="-776032826" departLane="best" type="motorcycle_motorcycle" departSpeed="max"/>
    <trip id="motorcycle29" depart="26.17" from="694797948#0" to="200904720" departLane="best" type="motorcycle_motorcycle" departSpeed="max"/>
    <trip id="motorcycle30" depart="27.08" from="-180205047" to="184133756#2" departLane="best" type="motorcycle_motorcycle" departSpeed="max"/>
    <trip id="motorcycle31" depart="27.98" from="-652233347#1" to="180087159#0" departLane="best" type="motorcycle_motorcycle" departSpeed="max"/>
    <trip id="motorcycle32" depart="28.88" from="4840073#5" to="179378510" departLane="best" type="motorcycle_motorcycle"/>
    <trip id="motorcycle33" depart="29.78" from="-200904715" to="172333266#1" departLane="best" type="motorcycle_motorcycle" departSpeed="max"/>
    <trip id="motorcycle34" depart="30.69" from="-112117466#1" to="-120353053#4" departLane="best" type="motorcycle_motorcycle"/>
    <trip id="motorcycle35" depart="31.59" from="126253276" to="-172656294#0" departLane="best" type="motorcycle_motorcycle"/>
    <trip id="motorcycle36" depart="32.49" from="-172333269#0" to="112783308#5" departLane="best" type="motorcycle_motorcycle"/>
    <trip id="motorcycle37" depart="33.40" from="324951813" to="1197279441#1" departLane="best" type="motorcycle_motorcycle" departSpeed="max"/>
    <trip id="motorcycle38" depart="34.30" from="28598668#0" to="126253249#3" departLane="best" type="motorcycle_motorcycle"/>
    <trip id="motorcycle39" depart="35.20" from="-254471174" to="1132359827" departLane="best" type="motorcycle_motorcycle" departSpeed="max"/>
    <trip id="motorcycle40" depart="36.10" from="184870767#0" to="-24683729#9" departLane="best" type="motorcycle_motorcycle" departSpeed="max"/>
    <trip id="motorcycle41" depart="37.01" from="-648666856" to="180205047" departLane="best" type="motorcycle_motorcycle" departSpeed="max"/>
    <trip id="motorcycle42" depart="37.91" from="-111823085#0" to="254471174" departLane="best" type="motorcycle_motorcycle"/>
    <trip id="motorcycle43" depart="38.81" from="-201227515#1" to="199311106" departLane="best" type="motorcycle_motorcycle"/>
    <trip id="motorcycle44" depart="39.71" from="-649966504" to="-1111962989#0" departLane="best" type="motorcycle_motorcycle" departSpeed="max"/>
    <trip id="motorcycle45" depart="40.62" from="-215034906" to="180836298#2" departLane="best" type="motorcycle_motorcycle" departSpeed="max"/>
    <trip id="motorcycle46" depart="41.52" from="184133753#8" to="120278040" departLane="best" type="motorcycle_motorcycle"/>
    <trip id="motorcycle47" depart="42.42" from="56688294#0" to="-120278037#1" departLane="best" type="motorcycle_motorcycle"/>
    <trip id="motorcycle48" depart="43.32" from="694797948#0" to="-112783311" departLane="best" type="motorcycle_motorcycle" departSpeed="max"/>
    <trip id="motorcycle49" depart="44.23" from="-112117476#2" to="225426576#1" departLane="best" type="motorcycle_motorcycle"/>
    <trip id="motorcycle50" depart="45.13" from="-1125794177" to="-111965821#1" departLane="best" type="motorcycle_motorcycle" departSpeed="max"/>
    <trip id="motorcycle51" depart="46.03" from="-416215273" to="184547450#4" departLane="best" type="motorcycle_motorcycle"/>
    <trip id="motorcycle52" depart="46.93" from="-28598645" to="649111822" departLane="best" type="motorcycle_motorcycle" departSpeed="max"/>
    <trip id="motorcycle53" depart="47.84" from="4840408#0" to="80913256" departLane="best" type="motorcycle_motorcycle"/>
    <trip id="motorcycle54" depart="48.74" from="-798110191#1" to="-135739027" departLane="best" type="motorcycle_motorcycle" departSpeed="max"/>
    <trip id="motorcycle55" depart="49.64" from="-176913253#5" to="-212392696#6" departLane="best" type="motorcycle_motorcycle"/>
    <trip id="motorcycle56" depart="50.54" from="-201527636#0" to="179378511#1" departLane="best" type="motorcycle_motorcycle"/>
    <trip id="motorcycle57" depart="51.45" from="179147299" to="199427888#0" departLane="best" type="motorcycle_motorcycle" departSpeed="max"/>
    <trip id="motorcycle58" depart="52.35" from="-200537877#1" to="200563623" departLane="best" type="motorcycle_motorcycle" departSpeed="max"/>
    <trip id="motorcycle59" depart="53.25" from="-649111822" to="-199311094#0" departLane="best" type="motorcycle_motorcycle" departSpeed="max"/>
    <trip id="motorcycle60" depart="54.15" from="649101850#1" to="181001962#6" departLane="best" type="motorcycle_motorcycle"/>
    <trip id="motorcycle61" depart="55.06" from="-81465115#1" to="-81351125#1" departLane="best" type="motorcycle_motorcycle"/>
    <trip id="motorcycle62" depart="55.96" from="-313035383" to="180087153" departLane="best" type="motorcycle_motorcycle" departSpeed="max"/>
    <trip id="motorcycle63" depart="56.86" from="-231553790#8" to="696973898#0" departLane="best" type="motorcycle_motorcycle"/>
    <trip id="motorcycle64" depart="57.76" from="-28598668#0" to="180205047" departLane="best" type="motorcycle_motorcycle"/>
    <trip id="motorcycle65" depart="58.67" from="1209005182#1" to="1152825305" departLane="best" type="motorcycle_motorcycle"/>
    <trip id="motorcycle66" depart="59.57" from="212392696#8" to="-112117471#1" departLane="best" type="motorcycle_motorcycle"/>
    <trip id="motorcycle67" depart="60.47" from="-200563628#1" to="1304877663" departLane="best" type="motorcycle_motorcycle"/>
    <trip id="motorcycle68" depart="61.38" from="-199427888#0" to="-798110193" departLane="best" type="motorcycle_motorcycle"/>
    <trip id="motorcycle69" depart="62.28" from="-171381316" to="112783313#5" departLane="best" type="motorcycle_motorcycle" departSpeed="max"/>
    <trip id="motorcycle70" depart="63.18" from="-135737866#2" to="649111822" departLane="best" type="motorcycle_motorcycle"/>
    <trip id="motorcycle71" depart="64.08" from="-200537879" to="1293621282" departLane="best" type="motorcycle_motorcycle" departSpeed="max"/>
    <trip id="motorcycle72" depart="64.99" from="-181002516#0" to="-111965821#3" departLane="best" type="motorcycle_motorcycle"/>
    <trip id="motorcycle73" depart="65.89" from="508291603" to="126253284" departLane="best" type="motorcycle_motorcycle"/>
    <trip id="motorcycle74" depart="66.79" from="-180214979#0" to="4840409#5" departLane="best" type="motorcycle_motorcycle"/>
    <trip id="motorcycle75" depart="67.69" from="-174884532#0" to="-694797948#0" departLane="best" type="motorcycle_motorcycle"/>
    <trip id="motorcycle76" depart="68.60" from="539589515#0" to="-1209005182#1" departLane="best" type="motorcycle_motorcycle"/>
    <trip id="motorcycle77" depart="69.50" from="-4840409#11" to="324951800#2" departLane="best" type="motorcycle_motorcycle"/>
    <trip id="motorcycle78" depart="70.40" from="-193104255#0" to="204983636#1" departLane="best" type="motorcycle_motorcycle"/>
    <trip id="motorcycle79" depart="71.30" from="-184128912#2" to="-112551782#1" departLane="best" type="motorcycle_motorcycle"/>
    <trip id="motorcycle80" depart="72.21" from="-126253264#0" to="180838128" departLane="best" type="motorcycle_motorcycle"/>
    <trip id="motorcycle81" depart="73.11" from="133051043#1" to="180214606#0" departLane="best" type="motorcycle_motorcycle"/>
    <trip id="motorcycle82" depart="74.01" from="-374179013" to="171381316" departLane="best" type="motorcycle_motorcycle" departSpeed="max"/>
    <trip id="motorcycle83" depart="74.91" from="184131276#2" to="80913265#1" departLane="best" type="motorcycle_motorcycle"/>
    <trip id="motorcycle84" depart="75.82" from="-286939358" to="202207741" departLane="best" type="motorcycle_motorcycle" departSpeed="max"/>
    <trip id="motorcycle85" depart="76.72" from="135737865#2" to="-185144671" departLane="best" type="motorcycle_motorcycle"/>
    <trip id="motorcycle86" depart="77.62" from="-176913253#3" to="-120278037#0" departLane="best" type="motorcycle_motorcycle"/>
    <trip id="motorcycle87" depart="78.52" from="180836298#12" to="180836298#11" departLane="best" type="motorcycle_motorcycle"/>
    <trip id="motorcycle88" depart="79.43" from="-218439408#1" to="180208508#0" departLane="best" type="motorcycle_motorcycle" departSpeed="max"/>
    <trip id="motorcycle89" depart="80.33" from="-153237862#2" to="184128911" departLane="best" type="motorcycle_motorcycle"/>
    <trip id="motorcycle90" depart="81.23" from="-181576786" to="649468467" departLane="best" type="motorcycle_motorcycle"/>
    <trip id="motorcycle91" depart="82.13" from="-112783298#0" to="200296717" departLane="best" type="motorcycle_motorcycle"/>
    <trip id="motorcycle92" depart="83.04" from="151883459#0" to="202775684" departLane="best" type="motorcycle_motorcycle"/>
    <trip id="motorcycle93" depart="83.94" from="-169994061#3" to="172656295" departLane="best" type="motorcycle_motorcycle" departSpeed="max"/>
    <trip id="motorcycle94" depart="84.84" from="185170302#6" to="200904706" departLane="best" type="motorcycle_motorcycle"/>
    <trip id="motorcycle95" depart="85.74" from="172656249#3" to="111965846#1" departLane="best" type="motorcycle_motorcycle"/>
    <trip id="motorcycle96" depart="86.65" from="112783313#4" to="-169994051#0" departLane="best" type="motorcycle_motorcycle"/>
    <trip id="motorcycle97" depart="87.55" from="111984903#1" to="111984897#1" departLane="best" type="motorcycle_motorcycle"/>
    <trip id="motorcycle98" depart="88.45" from="199311094#0" to="1116480109" departLane="best" type="motorcycle_motorcycle" departSpeed="max"/>
    <trip id="motorcycle99" depart="89.35" from="694598320" to="-112783314#0" departLane="best" type="motorcycle_motorcycle" departSpeed="max"/>
    <trip id="motorcycle100" depart="90.26" from="28579038#2" to="112783312#3" departLane="best" type="motorcycle_motorcycle"/>
    <trip id="motorcycle101" depart="91.16" from="169994061#0" to="180841631#0" departLane="best" type="motorcycle_motorcycle"/>
    <trip id="motorcycle102" depart="92.06" from="-176913253#3" to="-1375771794" departLane="best" type="motorcycle_motorcycle"/>
    <trip id="motorcycle103" depart="92.97" from="-150335301#3" to="1293621282" departLane="best" type="motorcycle_motorcycle"/>
    <trip id="motorcycle104" depart="93.87" from="756183477" to="81146145#3" departLane="best" type="motorcycle_motorcycle"/>
    <trip id="motorcycle105" depart="94.77" from="1192329569" to="348686132" departLane="best" type="motorcycle_motorcycle"/>
    <trip id="motorcycle106" depart="95.67" from="178434369#1" to="257759242#8" departLane="best" type="motorcycle_motorcycle"/>
    <trip id="motorcycle107" depart="96.58" from="169336486#0" to="172387589#3" departLane="best" type="motorcycle_motorcycle"/>
    <trip id="motorcycle108" depart="97.48" from="1375771480" to="-120430418#5" departLane="best" type="motorcycle_motorcycle" departSpeed="max"/>
    <trip id="motorcycle109" depart="98.38" from="-199427888#2" to="200399689" departLane="best" type="motorcycle_motorcycle"/>
    <trip id="motorcycle110" depart="99.28" from="-550516974" to="341769521#1" departLane="best" type="motorcycle_motorcycle" departSpeed="max"/>
    <trip id="motorcycle111" depart="100.19" from="-112783313#6" to="180087159#0" departLane="best" type="motorcycle_motorcycle"/>
    <trip id="motorcycle112" depart="101.09" from="172656295" to="200537879" departLane="best" type="motorcycle_motorcycle"/>
    <trip id="motorcycle113" depart="101.99" from="-652216913" to="174884531" departLane="best" type="motorcycle_motorcycle" departSpeed="max"/>
    <trip id="motorcycle114" depart="102.89" from="112783297#2" to="-172656249#2" departLane="best" type="motorcycle_motorcycle"/>
    <trip id="motorcycle115" depart="103.80" from="-337154627#1" to="218439407#6" departLane="best" type="motorcycle_motorcycle" departSpeed="max"/>
    <trip id="motorcycle116" depart="104.70" from="-112655396#3" to="120278040" departLane="best" type="motorcycle_motorcycle" departSpeed="max"/>
    <trip id="motorcycle117" depart="105.60" from="-153237886" to="909498917" departLane="best" type="motorcycle_motorcycle" departSpeed="max"/>
    <trip id="motorcycle118" depart="106.50" from="-220294114#6" to="180214606#0" departLane="best" type="motorcycle_motorcycle"/>
    <trip id="motorcycle119" depart="107.41" from="-202382797#1" to="58425711#3" departLane="best" type="motorcycle_motorcycle"/>
    <trip id="motorcycle120" depart="108.31" from="-200296717" to="200301564" departLane="best" type="motorcycle_motorcycle" departSpeed="max"/>
    <trip id="motorcycle121" depart="109.21" from="-798110192" to="1307629468" departLane="best" type="motorcycle_motorcycle" departSpeed="max"/>
    <trip id="motorcycle122" depart="110.11" from="24683729#4" to="753805292#1" departLane="best" type="motorcycle_motorcycle"/>
    <trip id="motorcycle123" depart="111.02" from="180836298#12" to="172656249#0" departLane="best" type="motorcycle_motorcycle"/>
    <trip id="motorcycle124" depart="111.92" from="-648976717" to="1304877663" departLane="best" type="motorcycle_motorcycle" departSpeed="max"/>
    <trip id="motorcycle125" depart="112.82" from="-24683728#2" to="-180214981#2" departLane="best" type="motorcycle_motorcycle"/>
    <trip id="motorcycle126" depart="113.72" from="-303142750#1" to="-172659771#2" departLane="best" type="motorcycle_motorcycle"/>
    <trip id="motorcycle127" depart="114.63" from="-649490177" to="1137863881" departLane="best" type="motorcycle_motorcycle" departSpeed="max"/>
    <trip id="motorcycle128" depart="115.53" from="112551783#3" to="-416222552" departLane="best" type="motorcycle_motorcycle"/>
    <trip id="motorcycle129" depart="116.43" from="126253282" to="-85690969#0" departLane="best" type="motorcycle_motorcycle"/>
    <trip id="motorcycle130" depart="117.33" from="-120278036#2" to="-180216845#5" departLane="best" type="motorcycle_motorcycle"/>
    <trip id="motorcycle131" depart="118.24" from="169336486#2" to="126253260" departLane="best" type="motorcycle_motorcycle"/>
    <trip id="motorcycle132" depart="119.14" from="508291618" to="1125794177" departLane="best" type="motorcycle_motorcycle" departSpeed="max"/>
    <trip id="motorcycle133" depart="120.04" from="121782640#4" to="-126253249#2" departLane="best" type="motorcycle_motorcycle"/>
    <trip id="motorcycle134" depart="120.94" from="-112783299#1" to="172656265#3" departLane="best" type="motorcycle_motorcycle"/>
    <trip id="motorcycle135" depart="121.85" from="135739027" to="-169994061#1" departLane="best" type="motorcycle_motorcycle" departSpeed="max"/>
    <trip id="motorcycle136" depart="122.75" from="4840409#6" to="916680987" departLane="best" type="motorcycle_motorcycle"/>
    <trip id="motorcycle137" depart="123.65" from="-220294114#3" to="351926855#2" departLane="best" type="motorcycle_motorcycle"/>
    <trip id="motorcycle138" depart="124.56" from="342044138#0" to="171381316" departLane="best" type="motorcycle_motorcycle"/>
    <trip id="motorcycle139" depart="125.46" from="798110193" to="1173652501" departLane="best" type="motorcycle_motorcycle" departSpeed="max"/>
    <trip id="motorcycle140" depart="126.36" from="172333266#0" to="798107753" departLane="best" type="motorcycle_motorcycle"/>
    <trip id="motorcycle141" depart="127.26" from="172656251#1" to="-313035384#0" departLane="best" type="motorcycle_motorcycle"/>
    <trip id="motorcycle142" depart="128.17" from="-567661914#3" to="351924481#12" departLane="best" type="motorcycle_motorcycle"/>
    <trip id="motorcycle143" depart="129.07" from="-670618779#3" to="-27033019#2" departLane="best" type="motorcycle_motorcycle"/>
    <trip id="motorcycle144" depart="129.97" from="135737876" to="622814978" departLane="best" type="motorcycle_motorcycle" departSpeed="max"/>
    <trip id="motorcycle145" depart="130.87" from="-1306603910" to="-694797948#1" departLane="best" type="motorcycle_motorcycle" departSpeed="max"/>
    <trip id="motorcycle146" depart="131.78" from="24683729#4" to="-80913262#0" departLane="best" type="motorcycle_motorcycle"/>
    <trip id="motorcycle147" depart="132.68" from="-120430418#3" to="-172656294#1" departLane="best" type="motorcycle_motorcycle"/>
    <trip id="motorcycle148" depart="133.58" from="-200904705" to="200563623" departLane="best" type="motorcycle_motorcycle" departSpeed="max"/>
    <trip id="motorcycle149" depart="134.48" from="112783312#4" to="-257759242#3" departLane="best" type="motorcycle_motorcycle"/>
    <trip id="motorcycle150" depart="135.39" from="351924481#5" to="-80913265#5" departLane="best" type="motorcycle_motorcycle"/>
    <trip id="motorcycle151" depart="136.29" from="58425711#3" to="254471174" departLane="best" type="motorcycle_motorcycle"/>
    <trip id="motorcycle152" depart="137.19" from="135737866#0" to="126253264#2" departLane="best" type="motorcycle_motorcycle" departSpeed="max"/>
    <trip id="motorcycle153" depart="138.09" from="112117497#0" to="-187167062#3" departLane="best" type="motorcycle_motorcycle"/>
    <trip id="motorcycle154" depart="139.00" from="-649490177" to="135737865#1" departLane="best" type="motorcycle_motorcycle" departSpeed="max"/>
    <trip id="motorcycle155" depart="139.90" from="-523998500#1" to="-1226637044" departLane="best" type="motorcycle_motorcycle" departSpeed="max"/>
    <trip id="motorcycle156" depart="140.80" from="4840073#3" to="184133754#0" departLane="best" type="motorcycle_motorcycle"/>
    <trip id="motorcycle157" depart="141.70" from="-200537876" to="-61164307#5" departLane="best" type="motorcycle_motorcycle" departSpeed="max"/>
    <trip id="motorcycle158" depart="142.61" from="-199427886#1" to="-172385221#5" departLane="best" type="motorcycle_motorcycle" departSpeed="max"/>
    <trip id="motorcycle159" depart="143.51" from="-313036038" to="-169994051#4" departLane="best" type="motorcycle_motorcycle" departSpeed="max"/>
    <trip id="motorcycle160" depart="144.41" from="-172385221#5" to="1307629468" departLane="best" type="motorcycle_motorcycle"/>
    <trip id="motorcycle161" depart="145.31" from="-180836298#1" to="185170302#5" departLane="best" type="motorcycle_motorcycle"/>
    <trip id="motorcycle162" depart="146.22" from="-180837170" to="112783308#1" departLane="best" type="motorcycle_motorcycle" departSpeed="max"/>
    <trip id="motorcycle163" depart="147.12" from="-1459430904" to="577458435#5" departLane="best" type="motorcycle_motorcycle" departSpeed="max"/>
    <trip id="motorcycle164" depart="148.02" from="-112551791#1" to="1459430909#5" departLane="best" type="motorcycle_motorcycle"/>
    <trip id="motorcycle165" depart="148.92" from="-136527497" to="-58425711#2" departLane="best" type="motorcycle_motorcycle" departSpeed="max"/>
    <trip id="motorcycle166" depart="149.83" from="348686134" to="-173980141" departLane="best" type="motorcycle_motorcycle" departSpeed="max"/>
    <trip id="motorcycle167" depart="150.73" from="-112783308#4" to="169994053#1" departLane="best" type="motorcycle_motorcycle"/>
    <trip id="motorcycle168" depart="151.63" from="-85690969#0" to="-220294114#7" departLane="best" type="motorcycle_motorcycle"/>
    <trip id="motorcycle169" depart="152.53" from="170559623#3" to="204983636#1" departLane="best" type="motorcycle_motorcycle"/>
    <trip id="motorcycle170" depart="153.44" from="1173652500" to="112783306#1" departLane="best" type="motorcycle_motorcycle"/>
    <trip id="motorcycle171" depart="154.34" from="-337154627#0" to="1274917532" departLane="best" type="motorcycle_motorcycle"/>
    <trip id="motorcycle172" depart="155.24" from="218439407#2" to="979666722#0" departLane="best" type="motorcycle_motorcycle"/>
    <trip id="motorcycle173" depart="156.15" from="-180088504" to="348686132" departLane="best" type="motorcycle_motorcycle" departSpeed="max"/>
    <trip id="motorcycle174" depart="157.05" from="798110188" to="1304877663" departLane="best" type="motorcycle_motorcycle" departSpeed="max"/>
    <trip id="motorcycle175" depart="157.95" from="-172656288" to="-135739027" departLane="best" type="motorcycle_motorcycle" departSpeed="max"/>
    <trip id="motorcycle176" depart="158.85" from="180216842#1" to="-85690969#1" departLane="best" type="motorcycle_motorcycle"/>
    <trip id="motorcycle177" depart="159.76" from="661602227#0" to="184128911" departLane="best" type="motorcycle_motorcycle"/>
    <trip id="motorcycle178" depart="160.66" from="508291602#1" to="279756910#0" departLane="best" type="motorcycle_motorcycle"/>
    <trip id="motorcycle179" depart="161.56" from="-348686135" to="112573865#2" departLane="best" type="motorcycle_motorcycle" departSpeed="max"/>
    <trip id="motorcycle180" depart="162.46" from="243735492#0" to="649111822" departLane="best" type="motorcycle_motorcycle"/>
    <trip id="motorcycle181" depart="163.37" from="508291597#0" to="-179147297" departLane="best" type="motorcycle_motorcycle"/>
    <trip id="motorcycle182" depart="164.27" from="111984901#2" to="917706656" departLane="best" type="motorcycle_motorcycle"/>
    <trip id="motorcycle183" depart="165.17" from="1163756362" to="-649101850#0" departLane="best" type="motorcycle_motorcycle"/>
    <trip id="motorcycle184" depart="166.07" from="-126253260" to="-1111962988" departLane="best" type="motorcycle_motorcycle"/>
    <trip id="motorcycle185" depart="166.98" from="-1459430901" to="-24683729#5" departLane="best" type="motorcycle_motorcycle" departSpeed="max"/>
    <trip id="motorcycle186" depart="167.88" from="-180208508#2" to="-80913265#2" departLane="best" type="motorcycle_motorcycle"/>
    <trip id="motorcycle187" depart="168.78" from="-232661480#5" to="-179147302" departLane="best" type="motorcycle_motorcycle"/>
    <trip id="motorcycle188" depart="169.68" from="798107751" to="-180216845#9" departLane="best" type="motorcycle_motorcycle" departSpeed="max"/>
    <trip id="motorcycle189" depart="170.59" from="-303142750#1" to="-190423764#3" departLane="best" type="motorcycle_motorcycle"/>
    <trip id="motorcycle190" depart="171.49" from="-649966504" to="-172387565#3" departLane="best" type="motorcycle_motorcycle" departSpeed="max"/>
    <trip id="motorcycle191" depart="172.39" from="-648648861" to="313512954" departLane="best" type="motorcycle_motorcycle" departSpeed="max"/>
    <trip id="motorcycle192" depart="173.29" from="-180205048" to="-172333278" departLane="best" type="motorcycle_motorcycle" departSpeed="max"/>
    <trip id="motorcycle193" depart="174.20" from="-376776844#0" to="-172656282" departLane="best" type="motorcycle_motorcycle"/>
    <trip id="motorcycle194" depart="175.10" from="58752656#0" to="180216842#2" departLane="best" type="motorcycle_motorcycle"/>
    <trip id="motorcycle195" depart="176.00" from="-508291598" to="172656249#1" departLane="best" type="motorcycle_motorcycle"/>
    <trip id="motorcycle196" depart="176.90" from="-201380505" to="891858757" departLane="best" type="motorcycle_motorcycle" departSpeed="max"/>
    <trip id="motorcycle197" depart="177.81" from="133051053#2" to="-337555873" departLane="best" type="motorcycle_motorcycle"/>
    <trip id="motorcycle198" depart="178.71" from="-172385223#0" to="24684287#4" departLane="best" type="motorcycle_motorcycle"/>
    <trip id="motorcycle199" depart="179.61" from="-200296718" to="200904715" departLane="best" type="motorcycle_motorcycle" departSpeed="max"/>
    <trip id="motorcycle200" depart="180.51" from="180216842#2" to="180211679#3" departLane="best" type="motorcycle_motorcycle"/>
    <trip id="motorcycle201" depart="181.42" from="120353057" to="-169188252" departLane="best" type="motorcycle_motorcycle" departSpeed="max"/>
    <trip id="motorcycle202" depart="182.32" from="-243735857" to="-231553790#7" departLane="best" type="motorcycle_motorcycle" departSpeed="max"/>
    <trip id="motorcycle203" depart="183.22" from="169337735#0" to="-180216842#5" departLane="best" type="motorcycle_motorcycle"/>
    <trip id="motorcycle204" depart="184.13" from="-688745781" to="172385223#0" departLane="best" type="motorcycle_motorcycle" departSpeed="max"/>
    <trip id="motorcycle205" depart="185.03" from="-80913265#5" to="1420153231#1" departLane="best" type="motorcycle_motorcycle"/>
    <trip id="motorcycle206" depart="185.93" from="-200904720" to="120430420#7" departLane="best" type="motorcycle_motorcycle" departSpeed="max"/>
    <trip id="motorcycle207" depart="186.83" from="136448243#2" to="416222552" departLane="best" type="motorcycle_motorcycle"/>
    <trip id="motorcycle208" depart="187.74" from="-180206104" to="329638939#1" departLane="best" type="motorcycle_motorcycle"/>
    <trip id="motorcycle209" depart="188.64" from="-798110189" to="649490177" departLane="best" type="motorcycle_motorcycle" departSpeed="max"/>
    <trip id="motorcycle210" depart="189.54" from="243517085" to="-798110196" departLane="best" type="motorcycle_motorcycle" departSpeed="max"/>