<?xml version="1.0" encoding="UTF-8"?>

<!-- generated on 2026-01-10 20:49:24.103126 by Eclipse SUMO osmWebWizard.py v1_25_0+0000-ac6c5a6752d
<configuration>
    <net-file value="C:\Users\donsa\Sumo\2026-01-10-20-48-35\osm.net.xml.gz"/>
    <additional-files value="C:\Users\donsa\Sumo\2026-01-10-20-48-35\osm_stops.add.xml,C:\Users\donsa\Sumo\2026-01-10-20-48-35\osm_pt.rou.xml"/>
    <output-trip-file value="C:\Users\donsa\Sumo\2026-01-10-20-48-35\osm.pedestrian.trips.xml"/>
    <route-file value="C:\Users\donsa\Sumo\2026-01-10-20-48-35\osm.pedestrian.rou.xml"/>
    <persontrips value="True"/>
    <persontrip.walk-opposite-factor value="0.8"/>
    <prefix value="ped"/>
    <trip-attributes value="modes=&quot;public&quot;"/>
    <vehicle-class value="pedestrian"/>
    <fringe-factor value="8"/>
    <seed value="46"/>
    <insertion-density value="12.0"/>
    <duarouter-weights.tls-penalty value="20"/>
</configuration>
-->

<routes xmlns:xsi="http://www.w3.org/2001/XMLSchema-instance" xsi:noNamespaceSchemaLocation="http://sumo.dlr.de/xsd/routes_file.xsd">
    <vType id="ped_pedestrian" vClass="pedestrian"/>
    <person id="ped0" depart="0.00" type="ped_pedestrian">
        <personTrip from="802516423#1" to="649032453" modes="public"/>
    </person>
    <person id="ped1" depart="2.87" type="ped_pedestrian">
        <personTrip from="1302549056" to="-326315319" modes="public"/>
    </person>
    <person id="ped2" depart="5.74" type="ped_pedestrian">
        <personTrip from="-1190746289" to="1086403556#1" modes="public"/>
    </person>
    <person id="ped3" depart="8.62" type="ped_pedestrian">
        <personTrip from="-351926854" to="-169336486#4" modes="public"/>
    </person>
    <person id="ped4" depart="11.49" type="ped_pedestrian">
        <personTrip from="1086403556#0" to="-1302549057" modes="public"/>
    </person>
    <person id="ped5" depart="14.36" type="ped_pedestrian">
        <personTrip from="-4840283#0" to="-172387590#2" modes="public"/>
    </person>
    <person id="ped6" depart="17.23" type="ped_pedestrian">
        <personTrip from="112116415" to="301779943#3" modes="public"/>
    </person>
    <person id="ped7" depart="20.10" type="ped_pedestrian">
        <personTrip from="1258596971" to="206879410#1" modes="public"/>
    </person>
    <person id="ped8" depart="22.98" type="ped_pedestrian">
        <personTrip from="802516425#2" to="1190745733" modes="public"/>
    </person>
    <person id="ped9" depart="25.85" type="ped_pedestrian">
        <personTrip from="-206868425#1" to="1192235805" modes="public"/>
    </person>
    <person id="ped10" depart="28.72" type="ped_pedestrian">
        <personTrip from="523998476" to="195516756" modes="public"/>
    </person>
    <person id="ped11" depart="31.59" type="ped_pedestrian">
        <personTrip from="649032453" to="1323452745#0" modes="public"/>
    </person>
    <person id="ped12" depart="34.46" type="ped_pedestrian">
        <personTrip from="301771441#1" to="-1190745725#0" modes="public"/>
    </person>
    <person id="ped13" depart="37.34" type="ped_pedestrian">
        <personTrip from="180209909#1" to="301779943#4" modes="public"/>
    </person>
    <person id="ped14" depart="40.21" type="ped_pedestrian">
        <personTrip from="1238214995" to="-24683736#2" modes="public"/>
    </person>
    <person id="ped15" depart="43.08" type="ped_pedestrian">
        <personTrip from="-1029933290#0" to="112116410" modes="public"/>
    </person>
    <person id="ped16" depart="45.95" type="ped_pedestrian">
        <personTrip from="802516426#2" to="301771441#0" modes="public"/>
    </person>
    <person id="ped17" depart="48.82" type="ped_pedestrian">
        <personTrip from="-344347496#0" to="-112448198#0" modes="public"/>
    </person>
    <person id="ped18" depart="51.70" type="ped_pedestrian">
        <personTrip from="112116410" to="206871187#1" modes="public"/>
    </person>
    <person id="ped19" depart="54.57" type="ped_pedestrian">
        <personTrip from="-61163249" to="-1190745732#1" modes="public"/>
    </person>
    <person id="ped20" depart="57.44" type="ped_pedestrian">
        <personTrip from="802516425#2" to="304684147#1" modes="public"/>
    </person>
    <person id="ped21" depart="60.31" type="ped_pedestrian">
        <personTrip from="1086403561#0" to="351926850#0" modes="public"/>
    </person>
    <person id="ped22" depart="63.18" type="ped_pedestrian">
        <personTrip from="-1190746289" to="802516421#1" modes="public"/>
    </person>
    <person id="ped23" depart="66.06" type="ped_pedestrian">
        <personTrip from="304839160#2" to="28579443" modes="public"/>
    </person>
    <person id="ped24" depart="68.93" type="ped_pedestrian">
        <personTrip from="1252754227#0" to="1086403556#1" modes="public"/>
    </person>
    <person id="ped25" depart="71.80" type="ped_pedestrian">
        <personTrip from="351926959" to="85650619" modes="public"/>
    </person>
    <person id="ped26" depart="74.67" type="ped_pedestrian">
        <personTrip from="193099760#3" to="-172387581" modes="public"/>
    </person>
    <person id="ped27" depart="77.54" type="ped_pedestrian">
        <personTrip from="802516424#2" to="181387696#2" modes="public"/>
    </person>
    <person id="ped28" depart="80.42" type="ped_pedestrian">
        <personTrip from="180211676" to="1272501354" modes="public"/>
    </person>
    <person id="ped29" depart="83.29" type="ped_pedestrian">
        <personTrip from="180211676" to="680355307" modes="public"/>
    </person>
    <person id="ped30" depart="86.16" type="ped_pedestrian">
        <personTrip from="85650619" to="802516421#1" modes="public"/>
    </person>
    <person id="ped31" depart="89.03" type="ped_pedestrian">
        <personTrip from="-1190745704#1" to="171603744#1" modes="public"/>
    </person>
    <person id="ped32" depart="91.90" type="ped_pedestrian">
        <personTrip from="-176144614#2" to="687663811" modes="public"/>
    </person>
    <person id="ped33" depart="94.78" type="ped_pedestrian">
        <personTrip from="112116414" to="112449571" modes="public"/>
    </person>
    <person id="ped34" depart="97.65" type="ped_pedestrian">
        <personTrip from="181387700#2" to="80913263#1" modes="public"/>
    </person>
    <person id="ped35" depart="100.52" type="ped_pedestrian">
        <personTrip from="-169336486#0" to="-1049908412" modes="public"/>
    </person>
    <person id="ped36" depart="103.39" type="ped_pedestrian">
        <personTrip from="181387696#2" to="340947053#2" modes="public"/>
    </person>
    <person id="ped37" depart="106.26" type="ped_pedestrian">
        <personTrip from="802516423#0" to="680355307" modes="public"/>
    </person>
    <person id="ped38" depart="109.14" type="ped_pedestrian">
        <personTrip from="523998476" to="304682917#1" modes="public"/>
    </person>
    <person id="ped39" depart="112.01" type="ped_pedestrian">
        <personTrip from="-1134476352" to="301779943#3" modes="public"/>
    </person>
    <person id="ped40" depart="114.88" type="ped_pedestrian">
        <personTrip from="-1190745734" to="1302549055#1" modes="public"/>
    </person>
    <person id="ped41" depart="117.75" type="ped_pedestrian">
        <personTrip from="-71436274#1" to="112116412#0" modes="public"/>
    </person>
    <person id="ped42" depart="120.62" type="ped_pedestrian">
        <personTrip from="-257759242#3" to="1192235802" modes="public"/>
    </person>
    <person id="ped43" depart="123.50" type="ped_pedestrian">
        <personTrip from="-1224042241" to="180211676" modes="public"/>
    </person>
    <person id="ped44" depart="126.37" type="ped_pedestrian">
        <personTrip from="325670216#1" to="112448195#1" modes="public"/>
    </person>
    <person id="ped45" depart="129.24" type="ped_pedestrian">
        <personTrip from="1396844865#1" to="1086403566" modes="public"/>
    </person>
    <person id="ped46" depart="132.11" type="ped_pedestrian">
        <personTrip from="-195516757" to="80913263#1" modes="public"/>
    </person>
    <person id="ped47" depart="134.98" type="ped_pedestrian">
        <personTrip from="-232516698" to="304684149" modes="public"/>
    </person>
    <person id="ped48" depart="137.86" type="ped_pedestrian">
        <personTrip from="-169336486#1" to="301779943#6" modes="public"/>
    </person>
    <person id="ped49" depart="140.73" type="ped_pedestrian">
        <personTrip from="181387700#1" to="112449576" modes="public"/>
    </person>
    <person id="ped50" depart="143.60" type="ped_pedestrian">
        <personTrip from="180206710#0" to="304682917#2" modes="public"/>
    </person>
    <person id="ped51" depart="146.47" type="ped_pedestrian">
        <personTrip from="120430420#3" to="1086403556#1" modes="public"/>
    </person>
    <person id="ped52" depart="149.34" type="ped_pedestrian">
        <personTrip from="1086403555#3" to="802516426#1" modes="public"/>
    </person>
    <person id="ped53" depart="152.22" type="ped_pedestrian">
        <personTrip from="184133754#1" to="112116412#1" modes="public"/>
    </person>
    <person id="ped54" depart="155.09" type="ped_pedestrian">
        <personTrip from="-169336486#3" to="438293143" modes="public"/>
    </person>
    <person id="ped55" depart="157.96" type="ped_pedestrian">
        <personTrip from="180206710#1" to="-753805277" modes="public"/>
    </person>
    <person id="ped56" depart="160.83" type="ped_pedestrian">
        <personTrip from="184886301" to="-169445036" modes="public"/>
    </person>
    <person id="ped57" depart="163.70" type="ped_pedestrian">
        <personTrip from="304839160#0" to="-326315319" modes="public"/>
    </person>
    <person id="ped58" depart="166.58" type="ped_pedestrian">
        <personTrip from="112116412#0" to="301779943#1" modes="public"/>
    </person>
    <person id="ped59" depart="169.45" type="ped_pedestrian">
        <personTrip from="304839160#2" to="-169336486#3" modes="public"/>
    </person>
    <person id="ped60" depart="172.32" type="ped_pedestrian">
        <personTrip from="112448812#1" to="181387700#2" modes="public"/>
    </person>
    <person id="ped61" depart="175.19" type="ped_pedestrian">
        <personTrip from="1098795866#0" to="687663812" modes="public"/>
    </person>
    <person id="ped62" depart="178.07" type="ped_pedestrian">
        <personTrip from="-176144614#2" to="80913263#1" modes="public"/>
    </person>
    <person id="ped63" depart="180.94" type="ped_pedestrian">
        <personTrip from="-193099763#0" to="802516423#5" modes="public"/>
    </person>
    <person id="ped64" depart="183.81" type="ped_pedestrian">
        <personTrip from="112448197#0" to="206879407#0" modes="public"/>
    </person>
    <person id="ped65" depart="186.68" type="ped_pedestrian">
        <personTrip from="-1459430911" to="112116415" modes="public"/>
    </person>
    <person id="ped66" depart="189.55" type="ped_pedestrian">
        <personTrip from="304839160#2" to="-229195912#0" modes="public"/>
    </person>
    <person id="ped67" depart="192.43" type="ped_pedestrian">
        <personTrip from="1302549055#0" to="206871186#0" modes="public"/>
    </person>
    <person id="ped68" depart="195.30" type="ped_pedestrian">
        <personTrip from="-176144614#2" to="112448195#2" modes="public"/>
    </person>
    <person id="ped69" depart="198.17" type="ped_pedestrian">
        <personTrip from="304839160#3" to="1174960072#6" modes="public"/>
    </person>
    <person id="ped70" depart="201.04" type="ped_pedestrian">
        <personTrip from="649032453" to="180208469#3" modes="public"/>
    </person>
    <person id="ped71" depart="203.91" type="ped_pedestrian">
        <personTrip from="802516426#2" to="206871187#0" modes="public"/>
    </person>
    <person id="ped72" depart="206.79" type="ped_pedestrian">
        <personTrip from="120277842" to="206868425#3" modes="public"/>
    </person>
    <person id="ped73" depart="209.66" type="ped_pedestrian">
        <personTrip from="482810543#2" to="1086403554#4" modes="public"/>
    </person>
    <person id="ped74" depart="212.53" type="ped_pedestrian">
        <personTrip from="-176144614#0" to="-456539261" modes="public"/>
    </person>
    <person id="ped75" depart="215.40" type="ped_pedestrian">
        <personTrip from="1049908412" to="80913263#0" modes="public"/>
    </person>
    <person id="ped76" depart="218.27" type="ped_pedestrian">
        <personTrip from="-1252754229" to="180206710#1" modes="public"/>
    </person>
    <person id="ped77" depart="221.15" type="ped_pedestrian">
        <personTrip from="1086403563" to="194871304" modes="public"/>
    </person>
    <person id="ped78" depart="224.02" type="ped_pedestrian">
        <personTrip from="301779943#5" to="1086403557" modes="public"/>
    </person>
    <person id="ped79" depart="226.89" type="ped_pedestrian">
        <personTrip from="-456539261" to="301779943#2" modes="public"/>
    </person>
    <person id="ped80" depart="229.76" type="ped_pedestrian">
        <personTrip from="-169336486#1" to="1190745721" modes="public"/>
    </person>
    <person id="ped81" depart="232.63" type="ped_pedestrian">
        <personTrip from="-193099764#1" to="180209914#2" modes="public"/>
    </person>
    <person id="ped82" depart="235.51" type="ped_pedestrian">
        <personTrip from="-1238214995" to="1190746289" modes="public"/>
    </person>
    <person id="ped83" depart="238.38" type="ped_pedestrian">
        <personTrip from="-351926855#3" to="-194901666#2" modes="public"/>
    </person>
    <person id="ped84" depart="241.25" type="ped_pedestrian">
        <personTrip from="-193099763#1" to="1086403566" modes="public"/>
    </person>
    <person id="ped85" depart="244.12" type="ped_pedestrian">
        <personTrip from="304684149" to="1086403555#3" modes="public"/>
    </person>
    <person id="ped86" depart="246.99" type="ped_pedestrian">
        <personTrip from="-547813492" to="802516421#2" modes="public"/>
    </person>
    <person id="ped87" depart="249.87" type="ped_pedestrian">
        <personTrip from="301779935" to="4840288#1" modes="public"/>
    </person>
    <person id="ped88" depart="252.74" type="ped_pedestrian">
        <personTrip from="181573316" to="517204482" modes="public"/>
    </person>
    <person id="ped89" depart="255.61" type="ped_pedestrian">
        <personTrip from="905308718" to="1134476355" modes="public"/>
    </person>
    <person id="ped90" depart="258.48" type="ped_pedestrian">
        <personTrip from="325670216#1" to="1192235802" modes="public"/>
    </person>
    <person id="ped91" depart="261.35" type="ped_pedestrian">
        <personTrip from="181387699" to="-169116990" modes="public"/>
    </person>
    <person id="ped92" depart="264.23" type="ped_pedestrian">
        <personTrip from="-802790387#2" to="301779943#9" modes="public"/>
    </person>
    <person id="ped93" depart="267.10" type="ped_pedestrian">
        <personTrip from="1086403554#2" to="-351926855#2" modes="public"/>
    </person>
    <person id="ped94" depart="269.97" type="ped_pedestrian">
        <personTrip from="-61163249" to="1176845457" modes="public"/>
    </person>
    <person id="ped95" depart="272.84" type="ped_pedestrian">
        <personTrip from="-172387590#1" to="194898519#0" modes="public"/>
    </person>
    <person id="ped96" depart="275.71" type="ped_pedestrian">
        <personTrip from="-1238214994" to="1086403558" modes="public"/>
    </person>
    <person id="ped97" depart="278.59" type="ped_pedestrian">
        <personTrip from="802516424#2" to="753805280#3" modes="public"/>
    </person>
    <person id="ped98" depart="281.46" type="ped_pedestrian">
        <personTrip from="-24683736#1" to="-180208469#6" modes="public"/>
    </person>
    <person id="ped99" depart="284.33" type="ped_pedestrian">
        <personTrip from="491715272#5" to="491715272#0" modes="public"/>
    </person>
    <person id="ped100" depart="287.20" type="ped_pedestrian">
        <personTrip from="-351926855#3" to="1086403556#2" modes="public"/>
    </person>
    <person id="ped101" depart="290.07" type="ped_pedestrian">
        <personTrip from="112116413" to="340947053#1" modes="public"/>
    </person>
    <person id="ped102" depart="292.95" type="ped_pedestrian">
        <personTrip from="180094409#0" to="112116409" modes="public"/>
    </person>
    <person id="ped103" depart="295.82" type="ped_pedestrian">
        <personTrip from="112116412#1" to="1086403561#0" modes="public"/>
    </person>
    <person id="ped104" depart="298.69" type="ped_pedestrian">
        <personTrip from="802516422#0" to="-301637359#1" modes="public"/>
    </person>
    <person id="ped105" depart="301.56" type="ped_pedestrian">
        <personTrip from="1174960072#1" to="687663806" modes="public"/>
    </person>
    <person id="ped106" depart="304.43" type="ped_pedestrian">
        <personTrip from="-438293143" to="112783315#0" modes="public"/>
    </person>
    <person id="ped107" depart="307.31" type="ped_pedestrian">
        <personTrip from="1224042242#0" to="802516423#1" modes="public"/>
    </person>
    <person id="ped108" depart="310.18" type="ped_pedestrian">
        <personTrip from="-1199351810#0" to="351926854" modes="public"/>
    </person>
    <person id="ped109" depart="313.05" type="ped_pedestrian">
        <personTrip from="1174960075" to="1086403561#1" modes="public"/>
    </person>
    <person id="ped110" depart="315.92" type="ped_pedestrian">
        <personTrip from="181387696#2" to="-1199351810#1" modes="public"/>
    </person>
    <person id="ped111" depart="318.79" type="ped_pedestrian">
        <personTrip from="-1116480111" to="-172387586#0" modes="public"/>
    </person>
    <person id="ped112" depart="321.67" type="ped_pedestrian">
        <personTrip from="802516421#1" to="112448190" modes="public"/>
    </person>
    <person id="ped113" depart="324.54" type="ped_pedestrian">
        <personTrip from="180206711#1" to="-24683736#2" modes="public"/>
    </person>
    <person id="ped114" depart="327.41" type="ped_pedestrian">
        <personTrip from="325670216#1" to="-1323453373" modes="public"/>
    </person>
    <person id="ped115" depart="330.28" type="ped_pedestrian">
        <personTrip from="687663811" to="-1302549057" modes="public"/>
    </person>
    <person id="ped116" depart="333.15" type="ped_pedestrian">
        <personTrip from="112448197#0" to="301771441#0" modes="public"/>
    </person>
    <person id="ped117" depart="336.03" type="ped_pedestrian">
        <personTrip from="301779943#8" to="301779938" modes="public"/>
    </person>
    <person id="ped118" depart="338.90" type="ped_pedestrian">
        <personTrip from="740100528" to="206871186#1" modes="public"/>
    </person>
    <person id="ped119" depart="341.77" type="ped_pedestrian">
        <personTrip from="687663811" to="180211680" modes="public"/>
    </person>
    <person id="ped120" depart="344.64" type="ped_pedestrian">
        <personTrip from="-162263142#1" to="1190745701#1" modes="public"/>
    </person>
    <person id="ped121" depart="347.51" type="ped_pedestrian">
        <personTrip from="1174960072#0" to="301771441#0" modes="public"/>
    </person>
    <person id="ped122" depart="350.39" type="ped_pedestrian">
        <personTrip from="80913263#0" to="1086403554#4" modes="public"/>
    </person>
    <person id="ped123" depart="353.26" type="ped_pedestrian">
        <personTrip from="172385216#0" to="-4840283#2" modes="public"/>
    </person>
    <person id="ped124" depart="356.13" type="ped_pedestrian">
        <personTrip from="-172387590#2" to="1174960072#6" modes="public"/>
    </person>
    <person id="ped125" depart="359.00" type="ped_pedestrian">
        <personTrip from="-687663807#2" to="-169336486#4" modes="public"/>
    </person>
    <person id="ped126" depart="361.87" type="ped_pedestrian">
        <personTrip from="24683736#0" to="1396844865#1" modes="public"/>
    </person>
    <person id="ped127" depart="364.75" type="ped_pedestrian">
        <personTrip from="165226102#2" to="194744622#0" modes="public"/>
    </person>
    <person id="ped128" depart="367.62" type="ped_pedestrian">
        <personTrip from="491715272#3" to="491715272#6" modes="public"/>
    </person>
    <person id="ped129" depart="370.49" type="ped_pedestrian">
        <personTrip from="-1224042241" to="351926957#0" modes="public"/>
    </person>
    <person id="ped130" depart="373.36" type="ped_pedestrian">
        <personTrip from="680355304" to="351926957#1" modes="public"/>
    </person>
    <person id="ped131" depart="376.23" type="ped_pedestrian">
        <personTrip from="1126627984" to="301771441#2" modes="public"/>
    </person>
    <person id="ped132" depart="379.11" type="ped_pedestrian">
        <personTrip from="1396844865#1" to="180211049" modes="public"/>
    </person>
    <person id="ped133" depart="381.98" type="ped_pedestrian">
        <personTrip from="80913263#0" to="1159188293" modes="public"/>
    </person>
    <person id="ped134" depart="384.85" type="ped_pedestrian">
        <personTrip from="802516423#0" to="802516422#0" modes="public"/>
    </person>
    <person id="ped135" depart="387.72" type="ped_pedestrian">
        <personTrip from="-1192235802" to="4840283#0" modes="public"/>
    </person>
    <person id="ped136" depart="390.59" type="ped_pedestrian">
        <personTrip from="523998476" to="802516425#1" modes="public"/>
    </person>
    <person id="ped137" depart="393.47" type="ped_pedestrian">
        <personTrip from="326249466#0" to="-169336486#0" modes="public"/>
    </person>
    <person id="ped138" depart="396.34" type="ped_pedestrian">
        <personTrip from="-456539261" to="-1459430906" modes="public"/>
    </person>
    <person id="ped139" depart="399.21" type="ped_pedestrian">
        <personTrip from="28598634" to="-1252754227#0" modes="public"/>
    </person>
    <person id="ped140" depart="402.08" type="ped_pedestrian">
        <personTrip from="184886303" to="126253266" modes="public"/>
    </person>
    <person id="ped141" depart="404.95" type="ped_pedestrian">
        <personTrip from="120358423#2" to="-231414549#1" modes="public"/>
    </person>
    <person id="ped142" depart="407.83" type="ped_pedestrian">
        <personTrip from="180209914#1" to="-111984925#1" modes="public"/>
    </person>
    <person id="ped143" depart="410.70" type="ped_pedestrian">
        <personTrip from="-1367403747" to="278977041#1" modes="public"/>
    </person>
    <person id="ped144" depart="413.57" type="ped_pedestrian">
        <personTrip from="-112798693#1" to="351926957#1" modes="public"/>
    </person>
    <person id="ped145" depart="416.44" type="ped_pedestrian">
        <personTrip from="112116413" to="-547813492" modes="public"/>
    </person>
    <person id="ped146" depart="419.31" type="ped_pedestrian">
        <personTrip from="304839160#3" to="1396844864" modes="public"/>
    </person>
    <person id="ped147" depart="422.19" type="ped_pedestrian">
        <personTrip from="171603744#0" to="351926850#1" modes="public"/>
    </person>
    <person id="ped148" depart="425.06" type="ped_pedestrian">
        <personTrip from="301779943#1" to="-187167062#5" modes="public"/>
    </person>
    <person id="ped149" depart="427.93" type="ped_pedestrian">
        <personTrip from="180209909#0" to="-351926855#0" modes="public"/>
    </person>
    <person id="ped150" depart="430.80" type="ped_pedestrian">
        <personTrip from="180211676" to="4840283#1" modes="public"/>
    </person>
    <person id="ped151" depart="433.67" type="ped_pedestrian">
        <personTrip from="304839160#0" to="802516423#4" modes="public"/>
    </person>
    <person id="ped152" depart="436.55" type="ped_pedestrian">
        <personTrip from="135737881" to="304839160#2" modes="public"/>
    </person>
    <person id="ped153" depart="439.42" type="ped_pedestrian">
        <personTrip from="112116413" to="-112448194#0" modes="public"/>
    </person>
    <person id="ped154" depart="442.29" type="ped_pedestrian">
        <personTrip from="351926959" to="1086403555#0" modes="public"/>
    </person>
    <person id="ped155" depart="445.16" type="ped_pedestrian">
        <personTrip from="-172387590#2" to="-1323453374" modes="public"/>
    </person>
    <person id="ped156" depart="448.03" type="ped_pedestrian">
        <personTrip from="301637359#1" to="802516423#5" modes="public"/>
    </person>
    <person id="ped157" depart="450.91" type="ped_pedestrian">
        <personTrip from="206871187#1" to="1134476354" modes="public"/>
    </person>
    <person id="ped158" depart="453.78" type="ped_pedestrian">
        <personTrip from="491715272#2" to="491715273#1" modes="public"/>
    </person>
    <person id="ped159" depart="456.65" type="ped_pedestrian">
        <personTrip from="-1190745714" to="180209914#4" modes="public"/>
    </person>
    <person id="ped160" depart="459.52" type="ped_pedestrian">
        <personTrip from="802516425#3" to="1086403555#3" modes="public"/>
    </person>
    <person id="ped161" depart="462.39" type="ped_pedestrian">
        <personTrip from="1174960072#6" to="112116409" modes="public"/>
    </person>
    <person id="ped162" depart="465.27" type="ped_pedestrian">
        <personTrip from="1459430910" to="687663807#2" modes="public"/>
    </person>
    <person id="ped163" depart="468.14" type="ped_pedestrian">
        <personTrip from="1086403561#0" to="802516422#0" modes="public"/>
    </person>
    <person id="ped164" depart="471.01" type="ped_pedestrian">
        <personTrip from="-1049908412" to="180211680" modes="public"/>
    </person>
    <person id="ped165" depart="473.88" type="ped_pedestrian">
        <personTrip from="680355307" to="-1190745732#0" modes="public"/>
    </person>
    <person id="ped166" depart="476.75" type="ped_pedestrian">
        <personTrip from="-1192235802" to="802516426#2" modes="public"/>
    </person>
    <person id="ped167" depart="479.63" type="ped_pedestrian">
        <personTrip from="180214608" to="-169336486#4" modes="public"/>
    </person>
    <person id="ped168" depart="482.50" type="ped_pedestrian">
        <personTrip from="-1238214994" to="1323453374" modes="public"/>
    </person>
    <person id="ped169" depart="485.37" type="ped_pedestrian">
        <personTrip from="278977041#1" to="1367403753" modes="public"/>
    </person>
    <person id="ped170" depart="488.24" type="ped_pedestrian">
        <personTrip from="-1225376813#2" to="1190745733" modes="public"/>
    </person>
    <person id="ped171" depart="491.11" type="ped_pedestrian">
        <personTrip from="-351926855#3" to="649032453" modes="public"/>
    </person>
    <person id="ped172" depart="493.99" type="ped_pedestrian">
        <personTrip from="-176144614#2" to="80913263#1" modes="public"/>
    </person>
    <person id="ped173" depart="496.86" type="ped_pedestrian">
        <personTrip from="1126627984" to="1086403558" modes="public"/>
    </person>
    <person id="ped174" depart="499.73" type="ped_pedestrian">
        <personTrip from="-1190745733" to="181387700#1" modes="public"/>
    </person>
    <person id="ped175" depart="502.60" type="ped_pedestrian">
        <personTrip from="1258597009" to="112116412#1" modes="public"/>
    </person>
    <person id="ped176" depart="505.48" type="ped_pedestrian">
        <personTrip from="1086403555#5" to="-206868425#3" modes="public"/>
    </person>
    <person id="ped177" depart="508.35" type="ped_pedestrian">
        <personTrip from="-1238214994" to="1086403555#4" modes="public"/>
    </person>
    <person id="ped178" depart="511.22" type="ped_pedestrian">
        <personTrip from="-1225376812" to="206871186#1" modes="public"/>
    </person>
    <person id="ped179" depart="514.09" type="ped_pedestrian">
        <personTrip from="304839160#3" to="180211049" modes="public"/>
    </person>
    <person id="ped180" depart="516.96" type="ped_pedestrian">
        <personTrip from="351926850#0" to="649966499" modes="public"/>
    </person>
    <person id="ped181" depart="519.84" type="ped_pedestrian">
        <personTrip from="112448192#2" to="-4840092" modes="public"/>
    </person>
    <person id="ped182" depart="522.71" type="ped_pedestrian">
        <personTrip from="206871187#0" to="-1459430907#0" modes="public"/>
    </person>
    <person id="ped183" depart="525.58" type="ped_pedestrian">
        <personTrip from="112448198#0" to="180209909#0" modes="public"/>
    </person>
    <person id="ped184" depart="528.45" type="ped_pedestrian">
        <personTrip from="802516427#2" to="482810543#1" modes="public"/>
    </person>
    <person id="ped185" depart="531.32" type="ped_pedestrian">
        <personTrip from="1258596971" to="1174960077" modes="public"/>
    </person>
    <person id="ped186" depart="534.20" type="ped_pedestrian">
        <personTrip from="180206710#1" to="301779939" modes="public"/>
    </person>
    <person id="ped187" depart="537.07" type="ped_pedestrian">
        <personTrip from="-176144614#2" to="1190745714" modes="public"/>
    </person>
    <person id="ped188" depart="539.94" type="ped_pedestrian">
        <personTrip from="351926957#0" to="1190745714" modes="public"/>
    </person>
    <person id="ped189" depart="542.81" type="ped_pedestrian">
        <personTrip from="482810543#3" to="-1190745729" modes="public"/>
    </person>