<?xml version="1.0" encoding="UTF-8"?>

<!-- generated on 2026-01-10 20:49:25.447079 by Eclipse SUMO osmWebWizard.py v1_25_0+0000-ac6c5a6752d
<configuration>
    <net-file value="C:\Users\donsa\Sumo\2026-01-10-20-48-35\osm.net.xml.gz"/>
    <additional-files value="C:\Users\donsa\Sumo\2026-01-10-20-48-35\osm_stops.add.xml,C:\Users\donsa\Sumo\2026-01-10-20-48-35\osm_pt.rou.xml"/>
    <output-trip-file value="C:\Users\donsa\Sumo\2026-01-10-20-48-35\osm.pedestrian.trips.xml"/>
    <route-file value="C:\Users\donsa\Sumo\2026-01-10-20-48-35\osm.pedestrian.rou.xml"/>
    <persontrips value="True"/>
    <persontrip.walk-opposite-factor value="0.8"/>
    <prefix value="ped"/>
    <trip-attributes value="modes=&quot;public&quot;"/>
    <vehicle-class value="pedestrian"/>
    <fringe-factor value="8"/>
    <seed value="46"/>
    <insertion-density value="12.0"/>
    <duarouter-weights.tls-penalty value="20"/>
</configuration>
-->

<!-- generated on 2026-01-10T20:49:24.847169+05:45 by Eclipse SUMO duarouter 1.25.0
<duarouterConfiguration xmlns:xsi="http://www.w3.org/2001/XMLSchema-instance" xsi:noNamespaceSchemaLocation="http://sumo.dlr.de/xsd/duarouterConfiguration.xsd">

    <input>
        <net-file value="C:\Users\donsa\Sumo\2026-01-10-20-48-35\osm.net.xml.gz"/>
        <additional-files value="C:\Users\donsa\Sumo\2026-01-10-20-48-35\osm_stops.add.xml,C:\Users\donsa\Sumo\2026-01-10-20-48-35\osm_pt.rou.xml"/>
        <route-files value="C:\Users\donsa\Sumo\2026-01-10-20-48-35\osm.pedestrian.trips.xml"/>
    </input>

    <output>
        <output-file value="C:\Users\donsa\Sumo\2026-01-10-20-48-35\osm.pedestrian.rou.xml"/>
        <alternatives-output value="NUL"/>
    </output>

    <processing>
        <weights.tls-penalty value="20"/>
        <persontrip.walk-opposite-factor value="0.8"/>
    </processing>

    <time>
        <begin value="0.0"/>
        <end value="3600.0"/>
    </time>

    <report>
        <no-warnings value="true"/>
        <ignore-errors value="true"/>
        <no-step-log value="true"/>
    </report>

</duarouterConfiguration>
-->

<routes xmlns:xsi="http://www.w3.org/2001/XMLSchema-instance" xsi:noNamespaceSchemaLocation="http://sumo.dlr.de/xsd/routes_file.xsd">
    <vType id="ped_pedestrian" vClass="pedestrian"/>
    <person id="ped0" type="ped_pedestrian" depart="0.00">
        <walk edges="802516423#1 802516423#0 802516422#0 802516422#1 802516422#2 802516425#3 802516426#1 -4840283#3 165226102#0 165226102#1 165226102#2 753805280#1 753805280#2 -753805280#3 -4840288#0 -4840288#1 172385216#1 172385216#0" busStop="-31148993"/>
        <walk edges="4840054#1 4840054#0 -4840057 -232516697#1 -567661914#3 -567661914#2 -567661914#1 -567661914#0 1420153231#1 232516698 171215507 220025931 -180208469#6 -180208469#5 -180208469#4 -180208469#3 -180208469#2 180209914#4 180209914#3 180209914#2 180209914#1 180209909#1 649032453"/>
    </person>
    <person id="ped1" type="ped_pedestrian" depart="2.87">
        <walk edges="1302549056 -1134476350#0 -172387589#1 -172387589#3 -4840283#0 4840283#1 4840283#2 4840283#3 165226102#0 165226102#1 165226102#2 753805280#1 753805280#2 -753805280#3 -4840288#0 -4840288#1 172385216#1 172385216#0" busStop="-31148993"/>
        <walk edges="4840054#1 4840054#0 -4840057 -232516697#1 -567661914#3 567661914#2 567661914#1 567661914#0 -1420153231#1 -232516698 28579443 -550489466#1 -326315319"/>
    </person>
    <person id="ped2" type="ped_pedestrian" depart="5.74">
        <walk edges="-1190746289 162263142#1 162263142#2 162263142#3 184133754#1 -218316959#4 -218316959#3 -218316959#1 195516757 687663812 195516756 687663811 -1029933288 687663807#1 687663807#2 301779933 301779936 112448812#1 301779941 301779935 351926959 257759242#9 257759242#8 -257759242#7 -257759242#6 -257759242#5 -257759242#4 -257759242#3 -257759242#2 -257759242#0 -231414548 -1126610601 671888452 229195912#0 4840054#0 4840054#1" busStop="-31148993"/>
        <walk edges="172385216#0 172385216#1 -4840288#1 -4840288#0 -753805280#3 753805280#2 753805280#1 165226102#2 165226102#1 165226102#0 4840283#3 4840283#2 4840283#1 4840283#0 187167062#5 85650619 1086403561#0 1086407921 1086403555#5 1086403555#4 1086403558 1086403556#1"/>
    </person>
    <person id="ped3" type="ped_pedestrian" depart="8.62">
        <walk edges="-351926854 351926957#1 351926957#0 301779945 301779935 351926959 257759242#9 257759242#8 -257759242#7 -257759242#6 -257759242#5 -257759242#4 257759242#3 257759242#2 257759242#0 231414548 1126610601 -169336486#0 -169336486#1 -169336486#2 -169336486#3 -169336486#4"/>
    </person>
    <person id="ped4" type="ped_pedestrian" depart="11.49">
        <walk edges="1086403556#0 1086403555#2 1086403555#3 1086403555#4 1086403555#5 1086407921 1086403561#0 85650619 -187167062#5 172387589#3 -1302549057"/>
    </person>
    <person id="ped5" type="ped_pedestrian" depart="14.36">
        <walk edges="-4840283#0 4840283#1 4840283#2 4840283#3 165226102#0 165226102#1 165226102#2 753805280#1 753805280#2 -753805280#3 -4840288#0 -4840288#1 172385216#1 172385216#0" busStop="-31148993"/>
        <walk edges="4840054#1 4840054#0 -4840057 -232516697#1 -567661914#3 -567661914#2 -567661914#1 -567661914#0 1420153231#1 232516698 171215507 220025931 351926959 301779935 301779941 112448812#1 112448812#2 301779942 301779943#5 301779943#4 1396844864 1396844865#1" busStop="31232256"/> <!-- Bir Hospital -->
        <walk edges="-172387590#2"/>
    </person>
    <person id="ped6" type="ped_pedestrian" depart="17.23">
        <walk edges="112116415 112116412#0 112116412#1 1258597009 -1029933290#1 -1029933290#0 687663811 195516756 687663812 -195516757 1396844865#0 1396844864 301779943#3"/>
    </person>
    <person id="ped7" type="ped_pedestrian" depart="20.10">
        <walk edges="1258596971 112116410 112116412#1 1258597009 -1029933290#1 -1029933290#0 -1029933288 687663807#1 687663807#2 301779933 301779936 112448812#1 301779941 301779935 351926959 257759242#9 257759242#8 -257759242#7 -257759242#6 -257759242#5 -257759242#4 -257759242#3 -257759242#2 -257759242#0 -231414548 -1126610601 671888452 229195912#0 4840054#0 4840054#1" busStop="-31148993"/>
        <walk edges="172385216#0 172385216#1 -4840288#1 -4840288#0 -753805280#3 753805280#2 753805280#1 -753805279#1 206879410#0 206879410#1"/>
    </person>
    <person id="ped8" type="ped_pedestrian" depart="22.98">
        <walk edges="802516425#2 802516425#3 802516426#1 -4840283#3 165226102#0 165226102#1 165226102#2 753805280#1 753805280#2 -753805280#3 -4840288#0 -4840288#1 172385216#1 172385216#0" busStop="-31148993"/>
        <walk edges="4840054#1 4840054#0 -4840057 -232516697#1 -567661914#3 -567661914#2 -567661914#1 -567661914#0 1420153231#1 232516698 171215507 220025931 351926959 301779935 301779941 112448812#1 301779936 301779933 -687663807#2 -687663807#1 1029933288 687663811 195516756 687663812 -195516757 218316959#1 218316959#3 218316959#4 -184133754#1 -162263142#3 -162263142#2 -1190745705 -184132821#2 -184132825#3 -184132825#2 1190745733"/>
    </person>
    <person id="ped9" type="ped_pedestrian" depart="25.85">
        <walk edges="-206868425#1 -747492823 112448193#1 672195633 -4840283#3 802516426#1 802516425#3 802516422#2 802516422#1 802516422#0 802516423#0 802516423#1 -194744622#0 169442475#1 -71436274#3 -71436274#4 -71436274#5 194898519#0 194898519#1 1192235805"/>
    </person>
    <person id="ped10" type="ped_pedestrian" depart="28.72">
        <walk edges="523998476 112783315#0 112783315#1 120430420#3 120430420#4 120430420#6 120430420#7 120430420#8 120430420#9 231414549#0 231414549#1 231414549#2 231414549#3 231414549#4 231414549#5 -1126610601 -231414548 -257759242#0 -257759242#2 -257759242#3 -257759242#4 -257759242#5 -257759242#6 -257759242#7 257759242#8 257759242#9 351926959 301779935 301779941 112448812#1 301779936 301779933 -687663807#2 -687663807#1 1029933288 687663811 195516756"/>
    </person>
    <person id="ped11" type="ped_pedestrian" depart="31.59">
        <walk edges="649032453 180209909#1 180209914#1 180209914#2 180209914#3 180209914#4 180208469#2 180208469#3 180208469#4 180208469#5 180208469#6 257759242#9 257759242#8 -257759242#7 -257759242#6 -257759242#5 -257759242#4 -257759242#3 -257759242#2 -257759242#0 -231414548 -1126610601 171227893" busStop="31148727"/>
        <ride busStop="-1281218812" intended="pt_bus_Gothatar-Purano_Buspark:0.2" depart="1814.00"/> <!-- Maiti Devi chowk -->
        <walk edges="1323452745#0"/>
    </person>
    <person id="ped12" type="ped_pedestrian" depart="34.46">
        <walk edges="301771441#1 -351926855#1 301779943#9 301779943#8 301779943#7 301779938 112448812#2 301779936 301779933 -687663807#2 -687663807#1 1029933288 687663811 195516756 687663812 -195516757 218316959#1 218316959#3 218316959#4 -184133754#1 -184133754#0 -184133753#8 -184133753#7 -184133753#6 -184133753#5 -184133753#4 -184133753#3 -1190745724 -1190745725#1 -1190745725#0"/>
    </person>
    <person id="ped13" type="ped_pedestrian" depart="37.34">
        <walk edges="180209909#1 180209914#1 180209914#2 180209914#3 180209914#4 180208469#2 180208469#3 180208469#4 180208469#5 180208469#6 351926959 301779935 301779941 112448812#1 112448812#2 301779942 301779943#5 301779943#4"/>
    </person>
    <person id="ped14" type="ped_pedestrian" depart="40.21">
        <walk edges="1238214995 -1224042242#2 301771441#2 1174960077 1174960075 1174960073 1174960072#5 1174960072#6 24683736#0 24683736#1 -24683736#2"/>
    </person>
    <person id="ped15" type="ped_pedestrian" depart="43.08">
        <walk edges="-1029933290#0 1029933290#1 1258597009 112116412#1 112116410"/>
    </person>
    <person id="ped16" type="ped_pedestrian" depart="45.95">
        <walk edges="802516426#2 4840283#3 165226102#0 165226102#1 165226102#2 753805280#1 753805280#2 -753805280#3 -4840288#0 -4840288#1 172385216#1 172385216#0" busStop="-31148993"/>
        <walk edges="4840054#1 4840054#0 -4840057 -232516697#1 -567661914#3 -567661914#2 -567661914#1 -567661914#0 1420153231#1 232516698 171215507 220025931 351926959 301779935 301779945 351926957#0 351926957#1 351926854 301779943#9 301771441#0"/>
    </person>
    <person id="ped17" type="ped_pedestrian" depart="48.82">
        <walk edges="-344347496#0 -344347496#1 671888452 229195912#0 4840054#0 4840054#1" busStop="-31148993"/>
        <walk edges="172385216#0 172385216#1 -4840288#1 -4840288#0 -753805280#3 753805280#2 753805280#1 165226102#2 165226102#1 165226102#0 4840283#3 4840283#2 4840283#1 -4840283#0 -172387589#3 -172387589#1 -172387589#0 -753805285 -112448198#1 -112448198#0"/>
    </person>
    <person id="ped18" type="ped_pedestrian" depart="51.70">
        <walk edges="112116410 112116412#1 1258597009 -1029933290#1 -1029933290#0 -1029933288 687663807#1 687663807#2 301779933 301779936 112448812#1 301779941 301779935 351926959 257759242#9 257759242#8 -257759242#7 -257759242#6 -257759242#5 -257759242#4 -257759242#3 -257759242#2 -257759242#0 -231414548 -1126610601 671888452 229195912#0 4840054#0 4840054#1" busStop="-31148993"/>
        <walk edges="172385216#0 172385216#1 -4840288#1 -4840288#0 -753805280#3 753805280#2 753805280#1 -753805279#1 -753805279#0 -112448192#1 -112448199 -112448188#1 206871186#0 206871187#1"/>
    </person>
    <person id="ped19" type="ped_pedestrian" depart="54.57">
        <walk edges="-61163249" busStop="31232256"/> <!-- Bir Hospital -->
        <walk edges="-172387581 218316959#1 218316959#3 218316959#4 -184133754#1 -162263142#3 -162263142#2 -1190745705 -184132821#2 -184132821#1 -1190745732#1"/>
    </person>
    <person id="ped20" type="ped_pedestrian" depart="57.44">
        <walk edges="802516425#2 802516425#3 802516426#1 4840283#2 4840283#1 4840283#0 187167062#5 187167062#4 187167062#3 187167062#2 187167062#1 187167062#0 4825671#0 304684152 304839160#1 304839160#0 304684149 304684147#1"/>
    </person>
    <person id="ped21" type="ped_pedestrian" depart="60.31">
        <walk edges="1086403561#0 85650619 187167062#5 4840283#0 4840283#1 4840283#2 4840283#3 165226102#0 165226102#1 165226102#2 753805280#1 753805280#2 -753805280#3 -4840288#0 -4840288#1 172385216#1 172385216#0" busStop="-31148993"/>
        <walk edges="4840054#1 4840054#0 -4840057 -232516697#1 -567661914#3 -567661914#2 -567661914#1 -567661914#0 1420153231#1 232516698 171215507 220025931 351926959 301779935 301779945 351926957#0 351926957#1 351926854 301779943#8 351926850#0"/>
    </person>
    <person id="ped22" type="ped_pedestrian" depart="63.18">
        <walk edges="-1190746289 162263142#1 162263142#2 162263142#3 184133754#1 -218316959#4 -218316959#3 -218316959#1 195516757 687663812 195516756 687663811 -1029933288 687663807#1 687663807#2 301779933 301779936 112448812#1 301779941 301779935 351926959 257759242#9 257759242#8 -257759242#7 -257759242#6 -257759242#5 -257759242#4 -257759242#3 -257759242#2 -257759242#0 -231414548 -1126610601 671888452 229195912#0 4840054#0 4840054#1" busStop="-31148993"/>
        <walk edges="172385216#0 172385216#1 -4840288#1 -4840288#0 -753805280#3 753805280#2 753805280#1 165226102#2 165226102#1 165226102#0 -4840283#3 802516426#1 802516425#3 802516425#2 802516425#1 802516421#2 802516421#1"/>
    </person>
    <person id="ped23" type="ped_pedestrian" depart="66.06">
        <walk edges="304839160#2 304684152 4825671#0 187167062#0 187167062#1 187167062#2 187167062#3 187167062#4 187167062#5 4840283#0 4840283#1 4840283#2 4840283#3 165226102#0 165226102#1 165226102#2 753805280#1 753805280#2 -753805280#3 -4840288#0 -4840288#1 172385216#1 172385216#0" busStop="-31148993"/>
        <walk edges="4840054#1 4840054#0 -4840057 -232516697#1 -567661914#3 567661914#2 567661914#1 567661914#0 -1420153231#1 -232516698 28579443"/>
    </person>
    <person id="ped24" type="ped_pedestrian" depart="68.93">
        <walk edges="1252754227#0 1174960072#1 1174960072#2" busStop="2396022575"/> <!-- NAC stop -->
        <ride busStop="943246313" intended="pt_bus_Chyamasingh_to_Ratnapark:0.0" depart="376.00"/> <!-- Ratna Park -->
        <walk edges="301779943#5 301779942 112448812#2 112448812#1 301779941 301779935 351926959 257759242#9 257759242#8 -257759242#7 -257759242#6 -257759242#5 -257759242#4 -257759242#3 -257759242#2 -257759242#0 -231414548 -1126610601 671888452 229195912#0 4840054#0 4840054#1" busStop="-31148993"/>
        <walk edges="172385216#0 172385216#1 -4840288#1 -4840288#0 -753805280#3 753805280#2 753805280#1 165226102#2 165226102#1 165226102#0 4840283#3 4840283#2 4840283#1 4840283#0 187167062#5 85650619 1086403561#0 1086407921 1086403555#5 1086403555#4 1086403558 1086403556#1"/>
    </person>
    <person id="ped25" type="ped_pedestrian" depart="71.80">
        <walk edges="351926959 257759242#9 257759242#8 -257759242#7 -257759242#6 -257759242#5 -257759242#4 -257759242#3 -257759242#2 -257759242#0 -231414548 -1126610601 671888452 229195912#0 4840054#0 4840054#1" busStop="-31148993"/>
        <walk edges="172385216#0 172385216#1 -4840288#1 -4840288#0 -753805280#3 753805280#2 753805280#1 165226102#2 165226102#1 165226102#0 4840283#3 4840283#2 4840283#1 4840283#0 187167062#5 85650619"/>
    </person>
    <person id="ped26" type="ped_pedestrian" depart="74.67">
        <walk edges="193099760#3 193099762#1" busStop="-296319786"/>
        <ride busStop="31232256" intended="pt_bus_26:0.0" depart="448.00"/> <!-- Bir Hospital -->
        <walk edges="-172387581"/>
    </person>
    <person id="ped27" type="ped_pedestrian" depart="77.54">
        <walk edges="802516424#2 802516425#1 802516425#2 802516425#3 802516426#1 -4840283#3 165226102#0 165226102#1 165226102#2 753805280#1 753805280#2 -753805280#3 -4840288#0 -4840288#1 172385216#1 172385216#0" busStop="-31148993"/>
        <walk edges="4840054#1 4840054#0 -4840057 -232516697#1 -567661914#3 -567661914#2 -567661914#1 -567661914#0 1420153231#1 232516698 171215507 220025931 351926959 301779935 301779941 112448812#1 112448812#2 301779942 301779943#5 80913263#1 181387696#2"/>
    </person>
    <person id="ped28" type="ped_pedestrian" depart="80.42">
        <walk edges="180211676 180211677 -1199351810#1 -344347496#0 740100528 231414548 257759242#0 257759242#2 257759242#3 -257759242#4 -257759242#5 -257759242#6 -257759242#7 257759242#8 257759242#9 351926959 301779935 301779941 112448812#1 301779936 301779933 -687663807#2 -687663807#1 1029933288 687663811 195516756 687663812 -195516757 218316959#1 218316959#3 218316959#4 -184133754#1 -162263142#3 -162263142#2 -1190745705 -184132821#2 -184132825#3 -184132825#2 -184132825#1 -184132825#0 184132823#0 -169188259 169188263 1272501354"/>
    </person>
    <person id="ped29" type="ped_pedestrian" depart="83.29">
        <walk edges="180211676 180211677 -1199351810#1 -344347496#0 -344347496#1 671888452 229195912#0 4840054#0 4840054#1" busStop="-31148993"/>
        <walk edges="172385216#0 172385216#1 -4840288#1 -4840288#0 -753805280#3 753805280#2 753805280#1 165226102#2 165226102#1 165226102#0 672195634 -112448193#1 -112448193#0 -112448195#1 680355307"/>
    </person>
    <person id="ped30" type="ped_pedestrian" depart="86.16">
        <walk edges="85650619 187167062#5 4840283#0 4840283#1 4840283#2 802516426#1 802516425#3 802516425#2 802516425#1 802516421#2 802516421#1"/>
    </person>
    <person id="ped31" type="ped_pedestrian" depart="89.03">
        <walk edges="-1190745704#1 -1190745700 -1190745701#0 -184132824 184132825#3 184132821#2 1190745703 162263142#2 162263142#3 184133754#1 -218316959#4 -218316959#3 -218316959#1 195516757 687663812 195516756 687663811 -1029933288 687663807#1 687663807#2 301779933 301779936 112448812#2 301779938 301779943#7 301779943#8 301779943#9 -351926855#1 -351926855#2 -351926855#3 -171603744#0 171603744#1"/>
    </person>
    <person id="ped32" type="ped_pedestrian" depart="91.90">
        <walk edges="-176144614#2 -176144614#1 -176144614#0 4840092" busStop="-1806066068"/> <!-- Kantipath -->
        <walk edges="112116409 112116412#0 112116412#1 1258597009 -1029933290#1 -1029933290#0 687663811"/>
    </person>
    <person id="ped33" type="ped_pedestrian" depart="94.78">
        <walk edges="112116414 1258596971 -1029933291 -1029933289 687663812 -195516757 1396844865#0 1396844864 301779943#3 112449576 112449571"/>
    </person>
    <person id="ped34" type="ped_pedestrian" depart="97.65">
        <walk edges="181387700#2 181387700#1 181387700#0 80913263#1"/>
    </person>
    <person id="ped35" type="ped_pedestrian" depart="100.52">
        <walk edges="-169336486#0 1126610601 231414548 257759242#0 257759242#2 257759242#3 -257759242#4 -257759242#5 -257759242#6 -257759242#7 257759242#8 257759242#9 351926959 301779935 301779941 112448812#1 112448812#2 301779942 301779943#5 80913263#1 181387700#0 -1049908412"/>
    </person>
    <person id="ped36" type="ped_pedestrian" depart="103.39">
        <walk edges="181387696#2 80913263#1 301779943#5 301779942 112448812#2 112448812#1 301779941 301779935 351926959 257759242#9 257759242#8 -257759242#7 -257759242#6 -257759242#5 -257759242#4 -257759242#3 -257759242#2 -257759242#0 -231414548 -1126610601 231414549#5 231414549#4 231414549#3 231414549#2 231414549#1 231414549#0 120430420#9" busStop="31148719"/> <!-- Dillibazaar stop -->
        <ride busStop="-31150643" intended="pt_bus_Gothatar-Purano_Buspark:0.1" depart="1492.00"/> <!-- Purano Baneshwar -->
        <walk edges="340947053#0 340947053#1 340947053#2"/>
    </person>
    <person id="ped37" type="ped_pedestrian" depart="106.26">
        <walk edges="802516423#0 802516422#0 802516422#1 802516422#2 802516425#3 802516426#1 -4840283#3 672195634 -112448193#1 -112448193#0 -112448195#1 680355307"/>
    </person>
    <person id="ped38" type="ped_pedestrian" depart="109.14">
        <walk edges="523998476 112783315#0 112783315#1 120430420#3 120430420#4 120430420#6 120430420#7 120430420#8 120430420#9 231414549#0 231414549#1 231414549#2 231414549#3 231414549#4 231414549#5 671888452 229195912#0 4840054#0 4840054#1" busStop="-31148993"/>
        <walk edges="172385216#0 172385216#1 -4840288#1 -4840288#0 -753805280#3 753805280#2 753805280#1 165226102#2 165226102#1 165226102#0 4840283#3 4840283#2 4840283#1 4840283#0 187167062#5 187167062#4 187167062#3 187167062#2 187167062#1 187167062#0 4825671#0 304684152 304839160#1 304839160#0 304684149 304684147#0 304682917#1"/>
    </person>
    <person id="ped39" type="ped_pedestrian" depart="112.01">
        <walk edges="-1134476352 -172387589#3 -4840283#0 4840283#1 4840283#2 4840283#3 165226102#0 165226102#1 165226102#2 753805280#1 753805280#2 -753805280#3 -4840288#0 -4840288#1 172385216#1 172385216#0" busStop="-31148993"/>
        <walk edges="4840054#1 4840054#0 -4840057 -232516697#1 -567661914#3 -567661914#2 -567661914#1 -567661914#0 1420153231#1 232516698 171215507 220025931 351926959 301779935 301779941 112448812#1 112448812#2 301779942 301779943#5 301779943#4 301779943#3"/>
    </person>
    <person id="ped40" type="ped_pedestrian" depart="114.88">
        <walk edges="-1190745734 184132825#1 184132825#2 184132825#3 184132821#2 1190745703 162263142#2 162263142#3 184133754#1 -218316959#4 -218316959#3 -218316959#1 195516757 687663812 195516756 687663811 -1029933288 687663807#1 687663807#2 301779933 301779936 112448812#1 301779941 301779935 351926959 257759242#9 257759242#8 -257759242#7 -257759242#6 -257759242#5 -257759242#4 -257759242#3 -257759242#2 -257759242#0 -231414548 -1126610601 671888452 229195912#0 4840054#0 4840054#1" busStop="-31148993"/>
        <walk edges="172385216#0 172385216#1 -4840288#1 -4840288#0 -753805280#3 753805280#2 753805280#1 165226102#2 165226102#1 165226102#0 4840283#3 4840283#2 4840283#1 -4840283#0 -187167062#5 -187167062#4 -1302549053 -1302549054#0 1302549055#1"/>
    </person>
    <person id="ped41" type="ped_pedestrian" depart="117.75">
        <walk edges="-71436274#1 802516423#2 802516423#1 802516423#0 802516422#0 802516422#1 802516422#2 802516425#3 802516426#1 -4840283#3 165226102#0 165226102#1 165226102#2 753805280#1 753805280#2 -753805280#3 -4840288#0 -4840288#1 172385216#1 172385216#0" busStop="-31148993"/>
        <walk edges="4840054#1 4840054#0 -4840057 -232516697#1 -567661914#3 -567661914#2 -567661914#1 -567661914#0 1420153231#1 232516698 171215507 220025931 351926959 301779935 301779941 112448812#1 301779936 301779933 -687663807#2 -687663807#1 1029933288 1029933290#0 1029933290#1 1258597009 112116412#1 112116412#0"/>
    </person>
    <person id="ped42" type="ped_pedestrian" depart="120.62">
        <walk edges="-257759242#3 -257759242#2 -257759242#0 -231414548 -1126610601 671888452 229195912#0 4840054#0 4840054#1" busStop="-31148993"/>
        <walk edges="172385216#0 172385216#1 -4840288#1 -4840288#0 -753805280#3 753805280#2 753805280#1 165226102#2 165226102#1 165226102#0 -4840283#3 802516426#1 802516425#3 802516422#2 802516422#1 802516422#0 802516423#0 802516423#1 -194744622#0 -169442475#0 -169442479#0 1192235802"/>
    </person>
    <person id="ped43" type="ped_pedestrian" depart="123.50">
        <walk edges="-1224042241 301771441#2" busStop="2396022575"/> <!-- NAC stop -->
        <ride busStop="943246313" intended="pt_bus_Chyamasingh_to_Ratnapark:0.0" depart="376.00"/> <!-- Ratna Park -->
        <walk edges="301779943#5 301779942 112448812#2 112448812#1 301779941 301779935 351926959 257759242#9 257759242#8 -257759242#7 -257759242#6 -257759242#5 -257759242#4 257759242#3 257759242#2 257759242#0 231414548 740100528 -344347496#0 -1199351810#1 180211677 180211676"/>
    </person>
    <person id="ped44" type="ped_pedestrian" depart="126.37">
        <walk edges="325670216#1 325665289#1 -111984925#0 176144614#2 176144614#1 176144614#0 4840092" busStop="-1806066068"/> <!-- Kantipath -->
        <walk edges="112116409 112116412#0 112116412#1 1258597009 -1029933290#1 -1029933290#0 -1029933288 687663807#1 687663807#2 301779933 301779936 112448812#1 301779941 301779935 351926959 257759242#9 257759242#8 -257759242#7 -257759242#6 -257759242#5 -257759242#4 -257759242#3 -257759242#2 -257759242#0 -231414548 -1126610601 671888452 229195912#0 4840054#0 4840054#1" busStop="-31148993"/>
        <walk edges="172385216#0 172385216#1 -4840288#1 -4840288#0 -753805280#3 753805280#2 753805280#1 165226102#2 165226102#1 165226102#0 672195634 -112448193#1 -112448193#0 112448195#1"/>
    </person>
    <person id="ped45" type="ped_pedestrian" depart="129.24">
        <walk edges="1396844865#1 1396844864 301779943#4 301779943#5 301779942 112448812#2 112448812#1 301779941 301779935 351926959 257759242#9 257759242#8 -257759242#7 -257759242#6 -257759242#5 -257759242#4 -257759242#3 -257759242#2 -257759242#0 -231414548 -1126610601 671888452 229195912#0 4840054#0 4840054#1" busStop="-31148993"/>
        <walk edges="172385216#0 172385216#1 -4840288#1 -4840288#0 -753805280#3 753805280#2 753805280#1 165226102#2 165226102#1 165226102#0 4840283#3 4840283#2 4840283#1 4840283#0 187167062#5 85650619 1086403554#1 1086403554#2 1126627984 1086403566"/>
    </person>
    <person id="ped46" type="ped_pedestrian" depart="132.11">
        <walk edges="-195516757 687663812 195516756 687663811 -1029933288 1029933288" busStop="-943246313"/> <!-- Ratna Park -->
        <walk edges="80913263#0 80913263#1"/>
    </person>
    <person id="ped47" type="ped_pedestrian" depart="134.98">
        <walk edges="-232516698 -1420153231#1 567661914#0 567661914#1 567661914#2 -567661914#3 -232516697#1 4840057 4840054#0 4840054#1" busStop="-31148993"/>
        <walk edges="172385216#0 172385216#1 -4840288#1 -4840288#0 -753805280#3 753805280#2 753805280#1 165226102#2 165226102#1 165226102#0 4840283#3 4840283#2 4840283#1 4840283#0 187167062#5 187167062#4 187167062#3 187167062#2 187167062#1 187167062#0 4825671#0 304684152 304839160#1 304839160#0 304684149"/>
    </person>
    <person id="ped48" type="ped_pedestrian" depart="137.86">
        <walk edges="-169336486#1 -169336486#0 1126610601 231414548 257759242#0 257759242#2 257759242#3 -257759242#4 -257759242#5 -257759242#6 -257759242#7 257759242#8 257759242#9 351926959 301779935 301779941 112448812#1 112448812#2 301779938 301779943#6"/>
    </person>
    <person id="ped49" type="ped_pedestrian" depart="140.73">
        <walk edges="181387700#1 181387700#0 80913263#1 301779943#4 301779943#3 112449576"/>
    </person>
    <person id="ped50" type="ped_pedestrian" depart="143.60">
        <walk edges="180206710#0 180206711#1 229195912#0 4840054#0 4840054#1" busStop="-31148993"/>
        <walk edges="172385216#0 172385216#1 -4840288#1 -4840288#0 -753805280#3 753805280#2 753805280#1 165226102#2 165226102#1 165226102#0 4840283#3 4840283#2 4840283#1 4840283#0 187167062#5 187167062#4 187167062#3 187167062#2 187167062#1 187167062#0 4825671#0 304684152 304839160#1 304839160#0 304684149 304684147#0 304682917#1 304682917#2"/>
    </person>
    <person id="ped51" type="ped_pedestrian" depart="146.47">
        <walk edges="120430420#3 120430420#4 120430420#6 120430420#7 120430420#8 120430420#9 231414549#0 231414549#1 231414549#2 231414549#3 231414549#4 231414549#5 671888452 229195912#0 4840054#0 4840054#1" busStop="-31148993"/>
        <walk edges="172385216#0 172385216#1 -4840288#1 -4840288#0 -753805280#3 753805280#2 753805280#1 165226102#2 165226102#1 165226102#0 4840283#3 4840283#2 4840283#1 4840283#0 187167062#5 85650619 1086403561#0 1086407921 1086403555#5 1086403555#4 1086403558 1086403556#1"/>
    </person>
    <person id="ped52" type="ped_pedestrian" depart="149.34">
        <walk edges="1086403555#3 1086403555#4 1086403555#5 1086407921 1086403561#0 85650619 187167062#5 4840283#0 4840283#1 4840283#2 802516426#1"/>
    </person>
    <person id="ped53" type="ped_pedestrian" depart="152.22">
        <walk edges="184133754#1 -218316959#4 -218316959#3 -218316959#1 195516757 687663812 195516756 687663811 1029933290#0 1029933290#1 1258597009 112116412#1"/>
    </person>
    <person id="ped54" type="ped_pedestrian" depart="155.09">
        <walk edges="-169336486#3 -169336486#2 -169336486#1 -169336486#0 1126610601 231414548 257759242#0 257759242#2 257759242#3 -257759242#4 -257759242#5 -257759242#6 -257759242#7 257759242#8 257759242#9 351926959 301779935 301779941 112448812#1 112448812#2 301779942 301779943#5 301779943#4 301779943#3 112449576 112449571 438293143"/>
    </person>
    <person id="ped55" type="ped_pedestrian" depart="157.96">
        <walk edges="180206710#1 4840054#0 4840054#1" busStop="-31148993"/>
        <walk edges="172385216#0 172385216#1 -4840288#1 -4840288#0 -753805280#3 753805280#2 753805280#1 -753805279#1 206879410#0 206879410#1 206879410#2 -753805277"/>
    </person>
    <person id="ped56" type="ped_pedestrian" depart="160.83">
        <walk edges="184886301 80913263#1 80913263#0" busStop="-943246313"/> <!-- Ratna Park -->
        <walk edges="1029933288 1029933290#0 -169445036"/>
    </person>
    <person id="ped57" type="ped_pedestrian" depart="163.70">
        <walk edges="304839160#0 304839160#1 304684152 4825671#0 187167062#0 187167062#1 187167062#2 187167062#3 187167062#4 187167062#5 4840283#0 4840283#1 4840283#2 4840283#3 165226102#0 165226102#1 165226102#2 753805280#1 753805280#2 -753805280#3 -4840288#0 -4840288#1 172385216#1 172385216#0" busStop="-31148993"/>
        <walk edges="4840054#1 4840054#0 -4840057 -232516697#1 -567661914#3 567661914#2 567661914#1 567661914#0 -1420153231#1 -232516698 28579443 -550489466#1 -326315319"/>
    </person>
    <person id="ped58" type="ped_pedestrian" depart="166.58">
        <walk edges="112116412#0 112116412#1 1258597009 -1029933290#1 -1029933290#0 687663811 195516756 687663812 -195516757 -172387581 -172387590#2 -172387590#1 351926850#1 301779943#1"/>
    </person>
    <person id="ped59" type="ped_pedestrian" depart="169.45">