<?xml version="1.0" encoding="UTF-8"?>

<!-- generated on 2026-01-10 20:49:04.186039 by Eclipse SUMO osmWebWizard.py v1_25_0+0000-ac6c5a6752d
<configuration>
    <net-file value="C:\Users\donsa\Sumo\2026-01-10-20-48-35\osm.net.xml.gz"/>
    <output-trip-file value="C:\Users\donsa\Sumo\2026-01-10-20-48-35\osm.bus.trips.xml"/>
    <route-file value="C:\Users\donsa\Sumo\2026-01-10-20-48-35\osm.bus.rou.xml"/>
    <prefix value="bus"/>
    <trip-attributes value="departLane=&quot;best&quot;"/>
    <fringe-start-attributes value="departSpeed=&quot;max&quot;"/>
    <vehicle-class value="bus"/>
    <fringe-factor value="5"/>
    <edge-permission value="bus"/>
    <via-edge-types value="highway.motorway,highway.motorway_link,highway.trunk_link,highway.primary_link,highway.secondary_link,highway.tertiary_link"/>
    <seed value="43"/>
    <min-distance value="600.0"/>
    <min-distance.fringe value="10.0"/>
    <remove-loops value="True"/>
    <insertion-density value="5.0"/>
</configuration>
-->

<routes xmlns:xsi="http://www.w3.org/2001/XMLSchema-instance" xsi:noNamespaceSchemaLocation="http://sumo.dlr.de/xsd/routes_file.xsd">
    <vType id="bus_bus" vClass="bus"/>
    <trip id="bus0" depart="0.00" from="-112783298#1" to="184128912#2" departLane="best" type="bus_bus"/>
    <trip id="bus1" depart="3.91" from="-153237862#1" to="112783299#7" departLane="best" type="bus_bus"/>
    <trip id="bus2" depart="7.81" from="136449402#3" to="24683728#10" departLane="best" type="bus_bus"/>
    <trip id="bus3" depart="11.72" from="-523998500#1" to="120430420#4" departLane="best" type="bus_bus" departSpeed="max"/>
    <trip id="bus4" depart="15.63" from="-112117476#1" to="111984901#1" departLane="best" type="bus_bus"/>
    <trip id="bus5" depart="19.54" from="-263114316#1" to="342044138#4" departLane="best" type="bus_bus" departSpeed="max"/>
    <trip id="bus6" depart="23.44" from="1111962988" to="202775684" departLane="best" type="bus_bus" departSpeed="max"/>
    <trip id="bus7" depart="27.35" from="-4840392#0" to="-172659771#1" departLane="best" type="bus_bus"/>
    <trip id="bus8" depart="31.26" from="243735492#0" to="28598638" departLane="best" type="bus_bus"/>
    <trip id="bus9" depart="35.16" from="-279756910#1" to="-126253269" departLane="best" type="bus_bus"/>
    <trip id="bus10" depart="39.07" from="-798107753" to="120430418#1" departLane="best" type="bus_bus" departSpeed="max"/>
    <trip id="bus11" depart="42.98" from="180836298#12" to="171203194#1" departLane="best" type="bus_bus"/>
    <trip id="bus12" depart="46.88" from="-28579038#2" to="-112783305#0" departLane="best" type="bus_bus"/>
    <trip id="bus13" depart="50.79" from="-1176845457" to="652233347#1" departLane="best" type="bus_bus" departSpeed="max"/>
    <trip id="bus14" depart="54.70" from="231553790#4" to="-27033020#2" departLane="best" type="bus_bus"/>
    <trip id="bus15" depart="58.61" from="-1274917532" to="344321403#5" departLane="best" type="bus_bus" departSpeed="max"/>
    <trip id="bus16" depart="62.51" from="112654805#2" to="649468467" departLane="best" type="bus_bus"/>
    <trip id="bus17" depart="66.42" from="1420153231#1" to="-126253264#0" departLane="best" type="bus_bus"/>
    <trip id="bus18" depart="70.33" from="120353053#1" to="243735859#1" departLane="best" type="bus_bus"/>
    <trip id="bus19" depart="74.23" from="342044138#8" to="-351924481#2" departLane="best" type="bus_bus"/>
    <trip id="bus20" depart="78.14" from="-170559623#1" to="341884382#0" departLane="best" type="bus_bus"/>
    <trip id="bus21" depart="82.05" from="181394681" to="-112783305#2" departLane="best" type="bus_bus" departSpeed="max"/>
    <trip id="bus22" depart="85.95" from="112783298#5" to="-56688294#1" departLane="best" type="bus_bus"/>
    <trip id="bus23" depart="89.86" from="-172656232#0" to="172333266#2" departLane="best" type="bus_bus"/>
    <trip id="bus24" depart="93.77" from="753805290#1" to="1414579283" departLane="best" type="bus_bus"/>
    <trip id="bus25" depart="97.68" from="-133051049#3" to="120362332#0" departLane="best" type="bus_bus"/>
    <trip id="bus26" depart="101.58" from="181002516#0" to="696973898#1" departLane="best" type="bus_bus"/>
    <trip id="bus27" depart="105.49" from="172333284#1" to="-112655402#1" departLane="best" type="bus_bus"/>
    <trip id="bus28" depart="109.40" from="753805283#1" to="171603744#0" departLane="best" type="bus_bus"/>
    <trip id="bus29" depart="113.30" from="-1257513673#0" to="-1428906585#0" departLane="best" type="bus_bus"/>
    <trip id="bus30" depart="117.21" from="-126253247#0" to="180211673" departLane="best" type="bus_bus"/>
    <trip id="bus31" depart="121.12" from="-169188260" to="254471174" departLane="best" type="bus_bus"/>
    <trip id="bus32" depart="125.02" from="-1306603910" to="1327045753" departLane="best" type="bus_bus" departSpeed="max"/>
    <trip id="bus33" depart="128.93" from="-508291602#1" to="-112654805#0" departLane="best" type="bus_bus"/>
    <trip id="bus34" depart="132.84" from="-105069931#0" to="550516974" departLane="best" type="bus_bus"/>
    <trip id="bus35" depart="136.75" from="798110188" to="-1375771794" departLane="best" type="bus_bus" departSpeed="max"/>
    <trip id="bus36" depart="140.65" from="172656282" to="81146155#1" departLane="best" type="bus_bus" departSpeed="max"/>
    <trip id="bus37" depart="144.56" from="169994053#0" to="337154627#1" departLane="best" type="bus_bus"/>
    <trip id="bus38" depart="148.47" from="24683733#0" to="-71436274#1" departLane="best" type="bus_bus"/>
    <trip id="bus39" depart="152.37" from="172333266#0" to="-126253251#1" departLane="best" type="bus_bus"/>
    <trip id="bus40" depart="156.28" from="-176913253#6" to="649966497#0" departLane="best" type="bus_bus"/>
    <trip id="bus41" depart="160.19" from="-341839156" to="181002516#1" departLane="best" type="bus_bus"/>
    <trip id="bus42" depart="164.09" from="112449586#0" to="-212392696#9" departLane="best" type="bus_bus" departSpeed="max"/>
    <trip id="bus43" depart="168.00" from="112655402#0" to="58752656#2" departLane="best" type="bus_bus" departSpeed="max"/>
    <trip id="bus44" depart="171.91" from="212393878#1" to="185170302#6" departLane="best" type="bus_bus"/>
    <trip id="bus45" depart="175.82" from="747501175" to="180214979#1" departLane="best" type="bus_bus"/>
    <trip id="bus46" depart="179.72" from="682063061#1" to="-184131276#3" departLane="best" type="bus_bus"/>
    <trip id="bus47" depart="183.63" from="-172656236#0" to="-181394681" departLane="best" type="bus_bus"/>
    <trip id="bus48" depart="187.54" from="-301924810#2" to="81146155#2" departLane="best" type="bus_bus"/>
    <trip id="bus49" depart="191.44" from="-180209324#1" to="112783297#3" departLane="best" type="bus_bus" departSpeed="max"/>
    <trip id="bus50" depart="195.35" from="252929776#0" to="682063061#2" departLane="best" type="bus_bus"/>
    <trip id="bus51" depart="199.26" from="-1459430902#0" to="212393878#2" departLane="best" type="bus_bus"/>
    <trip id="bus52" depart="203.17" from="169442483" to="-1375771794" departLane="best" type="bus_bus" departSpeed="max"/>
    <trip id="bus53" depart="207.07" from="120353047#3" to="-180214606#0" departLane="best" type="bus_bus"/>
    <trip id="bus54" depart="210.98" from="-28543722#0" to="-351924481#0" departLane="best" type="bus_bus"/>
    <trip id="bus55" depart="214.89" from="112449586#0" to="181583835#1" departLane="best" type="bus_bus" departSpeed="max"/>
    <trip id="bus56" depart="218.79" from="-172659771#6" to="-112783298#5" departLane="best" type="bus_bus" departSpeed="max"/>
    <trip id="bus57" depart="222.70" from="-184547451" to="184133753#3" departLane="best" type="bus_bus"/>
    <trip id="bus58" depart="226.61" from="-185170302#7" to="180087155" departLane="best" type="bus_bus"/>
    <trip id="bus59" depart="230.51" from="-120358423#0" to="184869463#2" departLane="best" type="bus_bus"/>
    <trip id="bus60" depart="234.42" from="-151883459#1" to="-184133749#1" departLane="best" type="bus_bus" departSpeed="max"/>
    <trip id="bus61" depart="238.33" from="126253244#0" to="-24683729#7" departLane="best" type="bus_bus"/>
    <trip id="bus62" depart="242.24" from="136448243#0" to="-28579038#1" departLane="best" type="bus_bus" departSpeed="max"/>
    <trip id="bus63" depart="246.14" from="-649111822" to="112551783#1" departLane="best" type="bus_bus" departSpeed="max"/>
    <trip id="bus64" depart="250.05" from="4840030#0" to="201527636#3" departLane="best" type="bus_bus" departSpeed="max"/>
    <trip id="bus65" depart="253.96" from="1116869264" to="341055726#1" departLane="best" type="bus_bus"/>
    <trip id="bus66" depart="257.86" from="1190745731" to="199427890#0" departLane="best" type="bus_bus"/>
    <trip id="bus67" depart="261.77" from="-798110189" to="165226102#2" departLane="best" type="bus_bus" departSpeed="max"/>
    <trip id="bus68" depart="265.68" from="-180087156#1" to="649070251" departLane="best" type="bus_bus" departSpeed="max"/>
    <trip id="bus69" depart="269.58" from="126253242#0" to="28598634" departLane="best" type="bus_bus"/>
    <trip id="bus70" depart="273.49" from="112783314#1" to="-112117485#1" departLane="best" type="bus_bus"/>
    <trip id="bus71" depart="277.40" from="-1306603910" to="4840388#3" departLane="best" type="bus_bus" departSpeed="max"/>
    <trip id="bus72" depart="281.31" from="169442483" to="550516974" departLane="best" type="bus_bus" departSpeed="max"/>
    <trip id="bus73" depart="285.21" from="80913265#3" to="172333286#0" departLane="best" type="bus_bus"/>
    <trip id="bus74" depart="289.12" from="172656236#0" to="126253260" departLane="best" type="bus_bus"/>
    <trip id="bus75" depart="293.03" from="-181581465#1" to="1197279441#1" departLane="best" type="bus_bus"/>
    <trip id="bus76" depart="296.93" from="-58472955" to="-28543722#0" departLane="best" type="bus_bus"/>
    <trip id="bus77" depart="300.84" from="-231553790#6" to="112449586#1" departLane="best" type="bus_bus"/>
    <trip id="bus78" depart="304.75" from="-184133754#1" to="-169188267" departLane="best" type="bus_bus"/>
    <trip id="bus79" depart="308.65" from="-253929023#1" to="243735492#1" departLane="best" type="bus_bus" departSpeed="max"/>
    <trip id="bus80" depart="312.56" from="169442482#0" to="112573862#0" departLane="best" type="bus_bus"/>
    <trip id="bus81" depart="316.47" from="-200904706" to="24683729#5" departLane="best" type="bus_bus" departSpeed="max"/>
    <trip id="bus82" depart="320.38" from="-180216845#2" to="112783304#1" departLane="best" type="bus_bus"/>
    <trip id="bus83" depart="324.28" from="-27033019#4" to="891858756#0" departLane="best" type="bus_bus"/>
    <trip id="bus84" depart="328.19" from="-180625654#2" to="169994057#1" departLane="best" type="bus_bus" departSpeed="max"/>
    <trip id="bus85" depart="332.10" from="-80913256" to="-112783305#0" departLane="best" type="bus_bus" departSpeed="max"/>
    <trip id="bus86" depart="336.00" from="-172385223#0" to="4840409#14" departLane="best" type="bus_bus"/>
    <trip id="bus87" depart="339.91" from="184133753#1" to="-181001962#5" departLane="best" type="bus_bus"/>
    <trip id="bus88" depart="343.82" from="-172333284#4" to="652216912" departLane="best" type="bus_bus"/>
    <trip id="bus89" depart="347.72" from="112655407#6" to="191859859" departLane="best" type="bus_bus"/>
    <trip id="bus90" depart="351.63" from="351926855#0" to="-215212429" departLane="best" type="bus_bus"/>
    <trip id="bus91" depart="355.54" from="-670618779#4" to="608517316" departLane="best" type="bus_bus"/>
    <trip id="bus92" depart="359.45" from="-172656232#1" to="-202983110#0" departLane="best" type="bus_bus"/>
    <trip id="bus93" depart="363.35" from="303142750#1" to="337154621" departLane="best" type="bus_bus"/>
    <trip id="bus94" depart="367.26" from="-798107755" to="-153237937" departLane="best" type="bus_bus" departSpeed="max"/>
    <trip id="bus95" depart="371.17" from="220294114#5" to="-313035384#0" departLane="best" type="bus_bus"/>
    <trip id="bus96" depart="375.07" from="180087159#2" to="-202983110#0" departLane="best" type="bus_bus"/>
    <trip id="bus97" depart="378.98" from="-169188260" to="181583835#1" departLane="best" type="bus_bus"/>
    <trip id="bus98" depart="382.89" from="-313036038" to="-649101850#0" departLane="best" type="bus_bus" departSpeed="max"/>
    <trip id="bus99" depart="386.79" from="-4840453#2" to="112783298#1" departLane="best" type="bus_bus"/>
    <trip id="bus100" depart="390.70" from="-1302736571#0" to="180625654#2" departLane="best" type="bus_bus"/>
    <trip id="bus101" depart="394.61" from="-649966497#1" to="28579337#3" departLane="best" type="bus_bus"/>
    <trip id="bus102" depart="398.52" from="-199427886#1" to="180211679#3" departLane="best" type="bus_bus" departSpeed="max"/>
    <trip id="bus103" depart="402.42" from="1459430902#0" to="135737882" departLane="best" type="bus_bus"/>
    <trip id="bus104" depart="406.33" from="-649070248#2" to="671888452" departLane="best" type="bus_bus"/>
    <trip id="bus105" depart="410.24" from="-24683729#2" to="-121782640#1" departLane="best" type="bus_bus"/>
    <trip id="bus106" depart="414.14" from="332495815#2" to="313036038" departLane="best" type="bus_bus"/>
    <trip id="bus107" depart="418.05" from="-172387591#2" to="172656265#3" departLane="best" type="bus_bus"/>
    <trip id="bus108" depart="421.96" from="-176913253#2" to="344321403#2" departLane="best" type="bus_bus"/>
    <trip id="bus109" depart="425.87" from="337746501#1" to="649070243" departLane="best" type="bus_bus"/>
    <trip id="bus110" depart="429.77" from="1200990066" to="-199427890#0" departLane="best" type="bus_bus"/>
    <trip id="bus111" depart="433.68" from="180841631#1" to="-112655395#2" departLane="best" type="bus_bus"/>
    <trip id="bus112" depart="437.59" from="-1307629469" to="-302368017#1" departLane="best" type="bus_bus" departSpeed="max"/>
    <trip id="bus113" depart="441.49" from="-120353047#3" to="4825630#1" departLane="best" type="bus_bus"/>
    <trip id="bus114" depart="445.40" from="136448243#0" to="254487779" departLane="best" type="bus_bus" departSpeed="max"/>
    <trip id="bus115" depart="449.31" from="-187167062#0" to="172333275#0" departLane="best" type="bus_bus"/>
    <trip id="bus116" depart="453.21" from="184547450#1" to="172656249#1" departLane="best" type="bus_bus"/>
    <trip id="bus117" depart="457.12" from="-202983110#0" to="24684287#1" departLane="best" type="bus_bus"/>
    <trip id="bus118" depart="461.03" from="-342963781" to="172656265#3" departLane="best" type="bus_bus" departSpeed="max"/>
    <trip id="bus119" depart="464.94" from="243517091" to="180210961" departLane="best" type="bus_bus" departSpeed="max"/>
    <trip id="bus120" depart="468.84" from="-577458435#5" to="169994053#11" departLane="best" type="bus_bus" departSpeed="max"/>
    <trip id="bus121" depart="472.75" from="-176144614#2" to="112117466#3" departLane="best" type="bus_bus" departSpeed="max"/>
    <trip id="bus122" depart="476.66" from="220294114#3" to="1192329568" departLane="best" type="bus_bus"/>
    <trip id="bus123" depart="480.56" from="-169188264#0" to="-112551791#1" departLane="best" type="bus_bus"/>
    <trip id="bus124" depart="484.47" from="-1327045753" to="112551783#0" departLane="best" type="bus_bus" departSpeed="max"/>
    <trip id="bus125" depart="488.38" from="-58425711#3" to="-1375771480" departLane="best" type="bus_bus"/>
    <trip id="bus126" depart="492.28" from="120430420#1" to="-201527636#0" departLane="best" type="bus_bus"/>
    <trip id="bus127" depart="496.19" from="169188252" to="121782640#4" departLane="best" type="bus_bus" departSpeed="max"/>
    <trip id="bus128" depart="500.10" from="-798110197" to="-184870767#1" departLane="best" type="bus_bus" departSpeed="max"/>
    <trip id="bus129" depart="504.01" from="180209910#2" to="-111965835" departLane="best" type="bus_bus"/>
    <trip id="bus130" depart="507.91" from="-200904720" to="-133051051" departLane="best" type="bus_bus" departSpeed="max"/>
    <trip id="bus131" depart="511.82" from="-126253244#1" to="-111965835" departLane="best" type="bus_bus"/>
    <trip id="bus132" depart="515.73" from="-798110195" to="-120278037#0" departLane="best" type="bus_bus" departSpeed="max"/>
    <trip id="bus133" depart="519.63" from="-133051051" to="111984901#1" departLane="best" type="bus_bus"/>
    <trip id="bus134" depart="523.54" from="142107922#2" to="-180214981#1" departLane="best" type="bus_bus"/>
    <trip id="bus135" depart="527.45" from="133051051" to="1459430904" departLane="best" type="bus_bus"/>
    <trip id="bus136" depart="531.35" from="4840409#11" to="257759242#5" departLane="best" type="bus_bus"/>
    <trip id="bus137" depart="535.26" from="81351128#1" to="-508291613#0" departLane="best" type="bus_bus"/>
    <trip id="bus138" depart="539.17" from="324951800#1" to="-341055729" departLane="best" type="bus_bus"/>
    <trip id="bus139" depart="543.08" from="-193104255#1" to="111845389#1" departLane="best" type="bus_bus"/>
    <trip id="bus140" depart="546.98" from="-112448569#2" to="199427888#1" departLane="best" type="bus_bus"/>
    <trip id="bus141" depart="550.89" from="-126253249#3" to="172385221#4" departLane="best" type="bus_bus" departSpeed="max"/>
    <trip id="bus142" depart="554.80" from="-1173652501" to="111965835" departLane="best" type="bus_bus" departSpeed="max"/>
    <trip id="bus143" depart="558.70" from="-181394683" to="661602227#1" departLane="best" type="bus_bus" departSpeed="max"/>
    <trip id="bus144" depart="562.61" from="-200537876" to="-508291610#2" departLane="best" type="bus_bus" departSpeed="max"/>
    <trip id="bus145" depart="566.52" from="-200720019" to="-138449070" departLane="best" type="bus_bus" departSpeed="max"/>
    <trip id="bus146" depart="570.42" from="126253255" to="-301923334#1" departLane="best" type="bus_bus"/>
    <trip id="bus147" depart="574.33" from="-184870767#4" to="-324951813" departLane="best" type="bus_bus"/>
    <trip id="bus148" depart="578.24" from="-244147712" to="24683728#13" departLane="best" type="bus_bus" departSpeed="max"/>
    <trip id="bus149" depart="582.15" from="-180088504" to="-1375771794" departLane="best" type="bus_bus" departSpeed="max"/>
    <trip id="bus150" depart="586.05" from="-215034906" to="153237862#4" departLane="best" type="bus_bus" departSpeed="max"/>
    <trip id="bus151" depart="589.96" from="-191859859" to="-135739025" departLane="best" type="bus_bus"/>
    <trip id="bus152" depart="593.87" from="-24683728#2" to="753805287#0" departLane="best" type="bus_bus"/>
    <trip id="bus153" depart="597.77" from="341705800#0" to="112551784" departLane="best" type="bus_bus"/>
    <trip id="bus154" depart="601.68" from="-4840283#1" to="-172656295" departLane="best" type="bus_bus"/>
    <trip id="bus155" depart="605.59" from="136449402#1" to="199427886#1" departLane="best" type="bus_bus"/>
    <trip id="bus156" depart="609.50" from="-181583835#1" to="172656249#3" departLane="best" type="bus_bus" departSpeed="max"/>
    <trip id="bus157" depart="613.40" from="-1274917531" to="-329638939#0" departLane="best" type="bus_bus" departSpeed="max"/>
    <trip id="bus158" depart="617.31" from="-199427888#2" to="24683729#8" departLane="best" type="bus_bus"/>
    <trip id="bus159" depart="621.22" from="120278032#1" to="126253249#3" departLane="best" type="bus_bus"/>
    <trip id="bus160" depart="625.12" from="-4840409#3" to="1414579283" departLane="best" type="bus_bus"/>
    <trip id="bus161" depart="629.03" from="-649111822" to="-212392696#19" departLane="best" type="bus_bus" departSpeed="max"/>
    <trip id="bus162" depart="632.94" from="218439407#3" to="24683729#9" departLane="best" type="bus_bus"/>
    <trip id="bus163" depart="636.84" from="-302696863#2" to="-798110194" departLane="best" type="bus_bus" departSpeed="max"/>
    <trip id="bus164" depart="640.75" from="4840409#7" to="-112117466#8" departLane="best" type="bus_bus"/>
    <trip id="bus165" depart="644.66" from="180214606#1" to="-172656249#4" departLane="best" type="bus_bus"/>
    <trip id="bus166" depart="648.57" from="-172656251#0" to="-4840409#3" departLane="best" type="bus_bus"/>
    <trip id="bus167" depart="652.47" from="120353057" to="-337746501#1" departLane="best" type="bus_bus" departSpeed="max"/>
    <trip id="bus168" depart="656.38" from="4840388#0" to="169116995#2" departLane="best" type="bus_bus"/>
    <trip id="bus169" depart="660.29" from="-184869463#3" to="172656302" departLane="best" type="bus_bus"/>
    <trip id="bus170" depart="664.19" from="111967844#0" to="-301924810#1" departLane="best" type="bus_bus" departSpeed="max"/>
    <trip id="bus171" depart="668.10" from="172387589#1" to="-111845389#0" departLane="best" type="bus_bus"/>
    <trip id="bus172" depart="672.01" from="80913808#2" to="4825630#1" departLane="best" type="bus_bus"/>
    <trip id="bus173" depart="675.91" from="-1173653416" to="187167062#0" departLane="best" type="bus_bus" departSpeed="max"/>
    <trip id="bus174" depart="679.82" from="-523998500#1" to="200904713" departLane="best" type="bus_bus" departSpeed="max"/>
    <trip id="bus175" depart="683.73" from="-181576786" to="180206104" departLane="best" type="bus_bus"/>
    <trip id="bus176" depart="687.64" from="-112573864#1" to="24683736#2" departLane="best" type="bus_bus"/>
    <trip id="bus177" depart="691.54" from="-184133753#8" to="-172656292#0" departLane="best" type="bus_bus"/>
    <trip id="bus178" depart="695.45" from="-508291596" to="1209350396" departLane="best" type="bus_bus"/>
    <trip id="bus179" depart="699.36" from="-112783308#6" to="-172656236#0" departLane="best" type="bus_bus"/>
    <trip id="bus180" depart="703.26" from="-286939358" to="1360975525" departLane="best" type="bus_bus" departSpeed="max"/>
    <trip id="bus181" depart="707.17" from="81146155#3" to="-58425711#3" departLane="best" type="bus_bus"/>
    <trip id="bus182" depart="711.08" from="-121782801#1" to="648976717" departLane="best" type="bus_bus"/>
    <trip id="bus183" depart="714.98" from="112783298#5" to="204983636#1" departLane="best" type="bus_bus"/>
    <trip id="bus184" depart="718.89" from="-169188260" to="1197279441#0" departLane="best" type="bus_bus"/>
    <trip id="bus185" depart="722.80" from="-199010402" to="-231553790#10" departLane="best" type="bus_bus"/>
    <trip id="bus186" depart="726.71" from="-56688294#2" to="184133749#1" departLane="best" type="bus_bus"/>
    <trip id="bus187" depart="730.61" from="81146145#3" to="169994051#4" departLane="best" type="bus_bus"/>
    <trip id="bus188" depart="734.52" from="186144713#0" to="688745781" departLane="best" type="bus_bus" departSpeed="max"/>
    <trip id="bus189" depart="738.43" from="756183477" to="-4840409#1" departLane="best" type="bus_bus"/>
    <trip id="bus190" depart="742.33" from="231414549#5" to="184131276#3" departLane="best" type="bus_bus"/>
    <trip id="bus191" depart="746.24" from="-112117476#1" to="28598634" departLane="best" type="bus_bus"/>
    <trip id="bus192" depart="750.15" from="342044138#1" to="517158460" departLane="best" type="bus_bus"/>
    <trip id="bus193" depart="754.05" from="-224839048#0" to="200296717" departLane="best" type="bus_bus"/>
    <trip id="bus194" depart="757.96" from="125454792#3" to="-670618779#4" departLane="best" type="bus_bus"/>
    <trip id="bus195" depart="761.87" from="4840388#4" to="126253282" departLane="best" type="bus_bus"/>
    <trip id="bus196" depart="765.78" from="-180836298#4" to="111967844#1" departLane="best" type="bus_bus"/>
    <trip id="bus197" depart="769.68" from="112655407#0" to="-649101850#0" departLane="best" type="bus_bus"/>
    <trip id="bus198" depart="773.59" from="-212392696#6" to="172656280" departLane="best" type="bus_bus"/>
    <trip id="bus199" depart="777.50" from="-202382798#1" to="120031043#3" departLane="best" type="bus_bus"/>
    <trip id="bus200" depart="781.40" from="-133051049#6" to="1180587541" departLane="best" type="bus_bus"/>
    <trip id="bus201" depart="785.31" from="-212392696#4" to="-649804823#1" departLane="best" type="bus_bus"/>
    <trip id="bus202" depart="789.22" from="-1125794175" to="81146155#3" departLane="best" type="bus_bus" departSpeed="max"/>
    <trip id="bus203" depart="793.12" from="-179378511#1" to="-111965821#3" departLane="best" type="bus_bus" departSpeed="max"/>
    <trip id="bus204" depart="797.03" from="112117497#2" to="608517316" departLane="best" type="bus_bus"/>
    <trip id="bus205" depart="800.94" from="225426576#1" to="-190423764#1" departLane="best" type="bus_bus"/>
    <trip id="bus206" depart="804.85" from="-1459430903" to="-112783314#0" departLane="best" type="bus_bus" departSpeed="max"/>
    <trip id="bus207" depart="808.75" from="169336486#3" to="212392696#7" departLane="best" type="bus_bus"/>
    <trip id="bus208" depart="812.66" from="-421432016#1" to="-4840409#10" departLane="best" type="bus_bus"/>
    <trip id="bus209" depart="816.57" from="80913255#4" to="-200563628#0" departLane="best" type="bus_bus"/>
    <trip id="bus210" depart="820.47" from="-523998500#1" to="243735857" departLane="best" type="bus_bus" departSpeed="max"/>
    <trip id="bus211" depart="824.38" from="-212392696#2" to="539589515#3" departLane="best" type="bus_bus"/>
    <trip id="bus212" depart="828.29" from="176913253#5" to="172656232#2" departLane="best" type="bus_bus"/>
    <trip id="bus213" depart="832.20" from="231553790#7" to="180625654#1" departLane="best" type="bus_bus"/>
    <trip id="bus214" depart="836.10" from="27033019#4" to="-508291597#2" departLane="best" type="bus_bus"/>
    <trip id="bus215" depart="840.01" from="-4840408#2" to="-324951813" departLane="best" type="bus_bus"/>
    <trip id="bus216" depart="843.92" from="195254871#3" to="-508291596" departLane="best" type="bus_bus"/>
    <trip id="bus217" depart="847.82" from="-351924481#3" to="152409656#2" departLane="best" type="bus_bus"/>
    <trip id="bus218" depart="851.73" from="-126253249#3" to="337154621" departLane="best" type="bus_bus" departSpeed="max"/>
    <trip id="bus219" depart="855.64" from="1197279441#0" to="-112783303" departLane="best" type="bus_bus"/>
    <trip id="bus220" depart="859.54" from="-126253263#1" to="-27033019#1" departLane="best" type="bus_bus" departSpeed="max"/>
    <trip id="bus221" depart="863.45" from="-4840057" to="248967188" departLane="best" type="bus_bus"/>
    <trip id="bus222" depart="867.36" from="186151585" to="200563628#0" departLane="best" type="bus_bus"/>
    <trip id="bus223" depart="871.27" from="172656238#1" to="126253250#1" departLane="best" type="bus_bus"/>
    <trip id="bus224" depart="875.17" from="-126253249#2" to="-4840409#9" departLane="best" type="bus_bus"/>
    <trip id="bus225" depart="879.08" from="176913253#1" to="-112117495" departLane="best" type="bus_bus"/>
    <trip id="bus226" depart="882.99" from="-180836298#3" to="-111984903#0" departLane="best" type="bus_bus"/>
    <trip id="bus227" depart="886.89" from="-212392696#17" to="-342044138#4" departLane="best" type="bus_bus"/>
    <trip id="bus228" depart="890.80" from="-649070243" to="-172659771#3" departLane="best" type="bus_bus" departSpeed="max"/>
    <trip id="bus229" depart="894.71" from="1111962988" to="-136448830" departLane="best" type="bus_bus" departSpeed="max"/>
    <trip id="bus230" depart="898.61" from="184133753#4" to="313036038" departLane="best" type="bus_bus"/>
    <trip id="bus231" depart="902.52" from="-348686132" to="4840409#14" departLane="best" type="bus_bus" departSpeed="max"/>
    <trip id="bus232" depart="906.43" from="135739025" to="1459430905" departLane="best" type="bus_bus" departSpeed="max"/>
    <trip id="bus233" depart="910.34" from="125454791#1" to="112551784" departLane="best" type="bus_bus"/>
    <trip id="bus234" depart="914.24" from="-1465243330" to="523998475#1" departLane="best" type="bus_bus" departSpeed="max"/>
    <trip id="bus235" depart="918.15" from="-180209910#6" to="4825671#0" departLane="best" type="bus_bus"/>
    <trip id="bus236" depart="922.06" from="-301923334#2" to="1367405979" departLane="best" type="bus_bus"/>
    <trip id="bus237" depart="925.96" from="120278032#0" to="-517838820#0" departLane="best" type="bus_bus" departSpeed="max"/>
    <trip id="bus238" depart="929.87" from="81351125#1" to="341769521#1" departLane="best" type="bus_bus"/>
    <trip id="bus239" depart="933.78" from="-302368017#2" to="-421432016#0" departLane="best" type="bus_bus"/>
    <trip id="bus240" depart="937.68" from="325666723#1" to="652216913" departLane="best" type="bus_bus"/>
    <trip id="bus241" depart="941.59" from="-24683729#4" to="-1465244769" departLane="best" type="bus_bus"/>
    <trip id="bus242" depart="945.50" from="-81465111#3" to="112783301" departLane="best" type="bus_bus"/>
    <trip id="bus243" depart="949.41" from="-508291598" to="171603744#1" departLane="best" type="bus_bus"/>
    <trip id="bus244" depart="953.31" from="-111984901#4" to="151883457" departLane="best" type="bus_bus"/>
    <trip id="bus245" depart="957.22" from="1459430909#3" to="1413011910" departLane="best" type="bus_bus"/>
    <trip id="bus246" depart="961.13" from="-1039177260#0" to="152409656#1" departLane="best" type="bus_bus"/>
    <trip id="bus247" depart="965.03" from="-798107755" to="-649101850#0" departLane="best" type="bus_bus" departSpeed="max"/>
    <trip id="bus248" depart="968.94" from="-180088504" to="112655402#1" departLane="best" type="bus_bus" departSpeed="max"/>
    <trip id="bus249" depart="972.85" from="672194957" to="-171203199#5" departLane="best" type="bus_bus"/>
    <trip id="bus250" depart="976.75" from="120278037#0" to="126253281#1" departLane="best" type="bus_bus" departSpeed="max"/>