<?xml version="1.0" encoding="UTF-8"?>

<!-- generated on 2026-01-10 20:48:58.964047 by Eclipse SUMO osmWebWizard.py v1_25_0+0000-ac6c5a6752d
<configuration>
    <net-file value="C:\Users\donsa\Sumo\2026-01-10-20-48-35\osm.net.xml.gz"/>
    <output-trip-file value="C:\Users\donsa\Sumo\2026-01-10-20-48-35\osm.bicycle.trips.xml"/>
    <route-file value="C:\Users\donsa\Sumo\2026-01-10-20-48-35\osm.bicycle.rou.xml"/>
    <prefix value="bike"/>
    <trip-attributes value="departLane=&quot;best&quot;"/>
    <fringe-start-attributes value="departSpeed=&quot;max&quot;"/>
    <vehicle-class value="bicycle"/>
    <fringe-factor value="2"/>
    <edge-permission value="bicycle"/>
    <via-edge-types value="highway.motorway,highway.motorway_link,highway.trunk_link,highway.primary_link,highway.secondary_link,highway.tertiary_link"/>
    <max-distance value="8000.0"/>
    <remove-loops value="True"/>
    <insertion-density value="5.0"/>
</configuration>
-->

<routes xmlns:xsi="http://www.w3.org/2001/XMLSchema-instance" xsi:noNamespaceSchemaLocation="http://sumo.dlr.de/xsd/routes_file.xsd">
    <vType id="bike_bicycle" vClass="bicycle"/>
    <trip id="bike0" depart="0.00" from="1226637045" to="-112117497#1" departLane="best" type="bike_bicycle" departSpeed="max"/>
    <trip id="bike1" depart="3.14" from="-180216845#6" to="-180841632#4" departLane="best" type="bike_bicycle"/>
    <trip id="bike2" depart="6.27" from="172476456#0" to="172387589#1" departLane="best" type="bike_bicycle" departSpeed="max"/>
    <trip id="bike3" depart="9.41" from="341055726#0" to="-120278040" departLane="best" type="bike_bicycle"/>
    <trip id="bike4" depart="12.55" from="-348686135" to="-112448197#1" departLane="best" type="bike_bicycle" departSpeed="max"/>
    <trip id="bike5" depart="15.68" from="-169994051#4" to="1190298813#1" departLane="best" type="bike_bicycle"/>
    <trip id="bike6" depart="18.82" from="-112448192#1" to="-178434410" departLane="best" type="bike_bicycle"/>
    <trip id="bike7" depart="21.96" from="126253255" to="1197279441#1" departLane="best" type="bike_bicycle"/>
    <trip id="bike8" depart="25.09" from="-169994053#6" to="1302549055#1" departLane="best" type="bike_bicycle"/>
    <trip id="bike9" depart="28.23" from="194871304" to="-1098795866#0" departLane="best" type="bike_bicycle" departSpeed="max"/>
    <trip id="bike10" depart="31.37" from="190423764#2" to="179378511#0" departLane="best" type="bike_bicycle"/>
    <trip id="bike11" depart="34.50" from="-201227515#1" to="-169116994#1" departLane="best" type="bike_bicycle"/>
    <trip id="bike12" depart="37.64" from="232104796" to="135737884" departLane="best" type="bike_bicycle" departSpeed="max"/>
    <trip id="bike13" depart="40.77" from="193099760#1" to="181394684" departLane="best" type="bike_bicycle"/>
    <trip id="bike14" depart="43.91" from="-24683728#7" to="120358424#0" departLane="best" type="bike_bicycle"/>
    <trip id="bike15" depart="47.05" from="206879410#2" to="1416276306" departLane="best" type="bike_bicycle"/>
    <trip id="bike16" depart="50.18" from="24691221" to="126253263#1" departLane="best" type="bike_bicycle"/>
    <trip id="bike17" depart="53.32" from="169188263" to="-112783298#3" departLane="best" type="bike_bicycle"/>
    <trip id="bike18" depart="56.46" from="-172333266#0" to="-232400405" departLane="best" type="bike_bicycle"/>
    <trip id="bike19" depart="59.59" from="-1190298813#1" to="-184131277" departLane="best" type="bike_bicycle" departSpeed="max"/>
    <trip id="bike20" depart="62.73" from="-1190745704#1" to="-218439407#0" departLane="best" type="bike_bicycle" departSpeed="max"/>
    <trip id="bike21" depart="65.87" from="121782640#3" to="-520760761" departLane="best" type="bike_bicycle"/>
    <trip id="bike22" depart="69.00" from="-232661480#1" to="-180208508#3" departLane="best" type="bike_bicycle"/>
    <trip id="bike23" depart="72.14" from="-180209910#1" to="648652480" departLane="best" type="bike_bicycle"/>
    <trip id="bike24" depart="75.28" from="126253250#0" to="136525993#0" departLane="best" type="bike_bicycle"/>
    <trip id="bike25" depart="78.41" from="-135737870#1" to="181394683" departLane="best" type="bike_bicycle"/>
    <trip id="bike26" depart="81.55" from="-1306603910" to="-653716908" departLane="best" type="bike_bicycle" departSpeed="max"/>
    <trip id="bike27" depart="84.69" from="81351128#1" to="168948326#2" departLane="best" type="bike_bicycle"/>
    <trip id="bike28" depart="87.82" from="112117466#8" to="172656265#3" departLane="best" type="bike_bicycle"/>
    <trip id="bike29" depart="90.96" from="231194709" to="200537879" departLane="best" type="bike_bicycle"/>
    <trip id="bike30" depart="94.10" from="-172333269#1" to="-112448571#0" departLane="best" type="bike_bicycle"/>
    <trip id="bike31" depart="97.23" from="-193099764#1" to="-202382799" departLane="best" type="bike_bicycle" departSpeed="max"/>
    <trip id="bike32" depart="100.37" from="-169188253#1" to="649804823#0" departLane="best" type="bike_bicycle"/>
    <trip id="bike33" depart="103.51" from="301924810#1" to="-303140841#1" departLane="best" type="bike_bicycle"/>
    <trip id="bike34" depart="106.64" from="126253283" to="-753805290#0" departLane="best" type="bike_bicycle"/>
    <trip id="bike35" depart="109.78" from="4840073#1" to="112551791#4" departLane="best" type="bike_bicycle"/>
    <trip id="bike36" depart="112.92" from="-180208508#1" to="-186144701" departLane="best" type="bike_bicycle"/>
    <trip id="bike37" depart="116.05" from="1123582689" to="-200563628#0" departLane="best" type="bike_bicycle"/>
    <trip id="bike38" depart="119.19" from="112783299#2" to="4840408#2" departLane="best" type="bike_bicycle"/>
    <trip id="bike39" depart="122.32" from="-303140841#2" to="-180625654#1" departLane="best" type="bike_bicycle"/>
    <trip id="bike40" depart="125.46" from="917867320#1" to="1190298825#0" departLane="best" type="bike_bicycle"/>
    <trip id="bike41" depart="128.60" from="-1190302063#0" to="-112783299#1" departLane="best" type="bike_bicycle"/>
    <trip id="bike42" depart="131.73" from="-1190745733" to="1459430906" departLane="best" type="bike_bicycle" departSpeed="max"/>
    <trip id="bike43" depart="134.87" from="184133749#1" to="-917867322" departLane="best" type="bike_bicycle"/>
    <trip id="bike44" depart="138.01" from="-1152825305" to="-670618779#5" departLane="best" type="bike_bicycle" departSpeed="max"/>
    <trip id="bike45" depart="141.14" from="909820366" to="1190745707" departLane="best" type="bike_bicycle"/>
    <trip id="bike46" depart="144.28" from="753805293#2" to="329638939#1" departLane="best" type="bike_bicycle"/>
    <trip id="bike47" depart="147.42" from="-111823096#8" to="180836298#13" departLane="best" type="bike_bicycle"/>
    <trip id="bike48" depart="150.55" from="1384751279" to="1190745734" departLane="best" type="bike_bicycle" departSpeed="max"/>
    <trip id="bike49" depart="153.69" from="-180209910#1" to="169078007#0" departLane="best" type="bike_bicycle"/>
    <trip id="bike50" depart="156.83" from="-1190954676#0" to="111823096#7" departLane="best" type="bike_bicycle"/>
    <trip id="bike51" depart="159.96" from="301923334#2" to="-200904716" departLane="best" type="bike_bicycle"/>
    <trip id="bike52" depart="163.10" from="-747496254" to="-172385221#3" departLane="best" type="bike_bicycle" departSpeed="max"/>
    <trip id="bike53" depart="166.24" from="4840054#1" to="342044138#3" departLane="best" type="bike_bicycle"/>
    <trip id="bike54" depart="169.37" from="-184133749#2" to="165226102#0" departLane="best" type="bike_bicycle"/>
    <trip id="bike55" depart="172.51" from="1190302068" to="-153237937" departLane="best" type="bike_bicycle"/>
    <trip id="bike56" depart="175.65" from="180208469#3" to="1190954678#1" departLane="best" type="bike_bicycle"/>
    <trip id="bike57" depart="178.78" from="180841632#5" to="1190745714" departLane="best" type="bike_bicycle"/>
    <trip id="bike58" depart="181.92" from="-1026711284" to="-337154627#0" departLane="best" type="bike_bicycle" departSpeed="max"/>
    <trip id="bike59" depart="185.06" from="-111984903#7" to="58473054#1" departLane="best" type="bike_bicycle"/>
    <trip id="bike60" depart="188.19" from="302696863#1" to="253307745#2" departLane="best" type="bike_bicycle"/>
    <trip id="bike61" depart="191.33" from="-185568239" to="-112798693#0" departLane="best" type="bike_bicycle" departSpeed="max"/>
    <trip id="bike62" depart="194.47" from="302368017#2" to="655288674" departLane="best" type="bike_bicycle"/>
    <trip id="bike63" depart="197.60" from="-1190298827" to="1148156739" departLane="best" type="bike_bicycle" departSpeed="max"/>
    <trip id="bike64" depart="200.74" from="-1184908208" to="195254871#1" departLane="best" type="bike_bicycle" departSpeed="max"/>
    <trip id="bike65" depart="203.87" from="180209910#0" to="-136448243#3" departLane="best" type="bike_bicycle"/>
    <trip id="bike66" depart="207.01" from="-648646645" to="120353047#3" departLane="best" type="bike_bicycle" departSpeed="max"/>
    <trip id="bike67" depart="210.15" from="-180208508#2" to="344239676" departLane="best" type="bike_bicycle"/>
    <trip id="bike68" depart="213.28" from="-351924481#12" to="-180209910#6" departLane="best" type="bike_bicycle"/>
    <trip id="bike69" depart="216.42" from="1098795863#0" to="181576409#0" departLane="best" type="bike_bicycle" departSpeed="max"/>
    <trip id="bike70" depart="219.56" from="-150335301#3" to="-301924810#3" departLane="best" type="bike_bicycle"/>
    <trip id="bike71" depart="222.69" from="891858757" to="169442477#0" departLane="best" type="bike_bicycle"/>
    <trip id="bike72" depart="225.83" from="-4840288#0" to="1190302065" departLane="best" type="bike_bicycle"/>
    <trip id="bike73" depart="228.97" from="-120031043#2" to="-181001962#3" departLane="best" type="bike_bicycle"/>
    <trip id="bike74" depart="232.10" from="-200904717" to="1302549054#0" departLane="best" type="bike_bicycle" departSpeed="max"/>
    <trip id="bike75" depart="235.24" from="-172333275#0" to="-180836298#12" departLane="best" type="bike_bicycle"/>
    <trip id="bike76" depart="238.38" from="-1189304038" to="1465243330" departLane="best" type="bike_bicycle" departSpeed="max"/>
    <trip id="bike77" depart="241.51" from="-172333269#1" to="508291610#0" departLane="best" type="bike_bicycle"/>
    <trip id="bike78" depart="244.65" from="24683736#0" to="-1190302069" departLane="best" type="bike_bicycle"/>
    <trip id="bike79" depart="247.79" from="-172387591#1" to="172333284#5" departLane="best" type="bike_bicycle"/>
    <trip id="bike80" depart="250.92" from="-169336482" to="-136452126#0" departLane="best" type="bike_bicycle" departSpeed="max"/>
    <trip id="bike81" depart="254.06" from="519934306#2" to="126253242#3" departLane="best" type="bike_bicycle"/>
    <trip id="bike82" depart="257.20" from="-61164307#4" to="201227516" departLane="best" type="bike_bicycle"/>
    <trip id="bike83" depart="260.33" from="193099760#3" to="-172656304#0" departLane="best" type="bike_bicycle"/>
    <trip id="bike84" depart="263.47" from="-1190302094" to="1116480109" departLane="best" type="bike_bicycle" departSpeed="max"/>
    <trip id="bike85" depart="266.61" from="-351924481#14" to="112655407#0" departLane="best" type="bike_bicycle"/>
    <trip id="bike86" depart="269.74" from="172385224#1" to="172387565#0" departLane="best" type="bike_bicycle"/>
    <trip id="bike87" depart="272.88" from="80913808#0" to="-1226637045" departLane="best" type="bike_bicycle"/>
    <trip id="bike88" depart="276.02" from="-312890364#1" to="-416215273" departLane="best" type="bike_bicycle" departSpeed="max"/>
    <trip id="bike89" depart="279.15" from="24691221" to="-187167062#3" departLane="best" type="bike_bicycle"/>
    <trip id="bike90" depart="282.29" from="-1416935610" to="112117485#1" departLane="best" type="bike_bicycle" departSpeed="max"/>
    <trip id="bike91" depart="285.42" from="-348686135" to="-218439407#1" departLane="best" type="bike_bicycle" departSpeed="max"/>
    <trip id="bike92" depart="288.56" from="-172669925#0" to="550516974" departLane="best" type="bike_bicycle"/>
    <trip id="bike93" depart="291.70" from="-4840453#2" to="332495815#1" departLane="best" type="bike_bicycle"/>
    <trip id="bike94" depart="294.83" from="111984897#5" to="-112783305#1" departLane="best" type="bike_bicycle"/>
    <trip id="bike95" depart="297.97" from="933125093" to="263114316#0" departLane="best" type="bike_bicycle"/>
    <trip id="bike96" depart="301.11" from="753805287#1" to="577458435#4" departLane="best" type="bike_bicycle"/>
    <trip id="bike97" depart="304.24" from="232348159#3" to="-169994053#8" departLane="best" type="bike_bicycle"/>
    <trip id="bike98" depart="307.38" from="-653716907" to="-180214979#1" departLane="best" type="bike_bicycle" departSpeed="max"/>
    <trip id="bike99" depart="310.52" from="-303758349" to="-1132488098" departLane="best" type="bike_bicycle"/>
    <trip id="bike100" depart="313.65" from="-24683729#2" to="80915805#0" departLane="best" type="bike_bicycle"/>
    <trip id="bike101" depart="316.79" from="-180208508#3" to="201227515#1" departLane="best" type="bike_bicycle"/>
    <trip id="bike102" depart="319.93" from="-519900310" to="-979666720" departLane="best" type="bike_bicycle"/>
    <trip id="bike103" depart="323.06" from="112117466#2" to="180216845#9" departLane="best" type="bike_bicycle"/>
    <trip id="bike104" depart="326.20" from="-1269023351" to="-24683729#4" departLane="best" type="bike_bicycle" departSpeed="max"/>
    <trip id="bike105" depart="329.34" from="753805286#2" to="126253268" departLane="best" type="bike_bicycle"/>
    <trip id="bike106" depart="332.47" from="1116480110" to="185170302#6" departLane="best" type="bike_bicycle" departSpeed="max"/>
    <trip id="bike107" depart="335.61" from="-1132731141" to="1272501354" departLane="best" type="bike_bicycle" departSpeed="max"/>
    <trip id="bike108" depart="338.75" from="-753805280#3" to="312890364#0" departLane="best" type="bike_bicycle"/>
    <trip id="bike109" depart="341.88" from="-1293621282" to="71436275#1" departLane="best" type="bike_bicycle" departSpeed="max"/>
    <trip id="bike110" depart="345.02" from="-1190298814" to="-172656249#2" departLane="best" type="bike_bicycle" departSpeed="max"/>
    <trip id="bike111" depart="348.16" from="112783620#0" to="172387579#4" departLane="best" type="bike_bicycle"/>
    <trip id="bike112" depart="351.29" from="-172385223#1" to="-133051053#2" departLane="best" type="bike_bicycle"/>
    <trip id="bike113" depart="354.43" from="332495815#2" to="-185170302#8" departLane="best" type="bike_bicycle"/>
    <trip id="bike114" depart="357.56" from="112783314#0" to="1416502085" departLane="best" type="bike_bicycle" departSpeed="max"/>
    <trip id="bike115" depart="360.70" from="-342044138#8" to="1270843718#1" departLane="best" type="bike_bicycle"/>
    <trip id="bike116" depart="363.84" from="-81146145#3" to="644044950#1" departLane="best" type="bike_bicycle"/>
    <trip id="bike117" depart="366.97" from="-153237862#5" to="180216842#4" departLane="best" type="bike_bicycle" departSpeed="max"/>
    <trip id="bike118" depart="370.11" from="-172476456#1" to="-753805290#1" departLane="best" type="bike_bicycle"/>
    <trip id="bike119" depart="373.25" from="136448243#0" to="-251112670" departLane="best" type="bike_bicycle" departSpeed="max"/>
    <trip id="bike120" depart="376.38" from="-193647753" to="187167062#5" departLane="best" type="bike_bicycle"/>
    <trip id="bike121" depart="379.52" from="-1189304046#1" to="112551791#0" departLane="best" type="bike_bicycle" departSpeed="max"/>
    <trip id="bike122" depart="382.66" from="920068551" to="909498917" departLane="best" type="bike_bicycle"/>
    <trip id="bike123" depart="385.79" from="-1189304048#1" to="-180214606#0" departLane="best" type="bike_bicycle"/>
    <trip id="bike124" depart="388.93" from="-180208508#3" to="61164307#8" departLane="best" type="bike_bicycle"/>
    <trip id="bike125" depart="392.07" from="303758348#2" to="351924481#9" departLane="best" type="bike_bicycle"/>
    <trip id="bike126" depart="395.20" from="-232516697#1" to="-169188259" departLane="best" type="bike_bicycle"/>
    <trip id="bike127" depart="398.34" from="212392696#6" to="180206393#0" departLane="best" type="bike_bicycle"/>
    <trip id="bike128" depart="401.48" from="1190302093#1" to="81146145#5" departLane="best" type="bike_bicycle"/>
    <trip id="bike129" depart="404.61" from="126253278#1" to="-1111962989#0" departLane="best" type="bike_bicycle"/>
    <trip id="bike130" depart="407.75" from="199427890#2" to="-24691221" departLane="best" type="bike_bicycle"/>
    <trip id="bike131" depart="410.89" from="133051049#3" to="648976717" departLane="best" type="bike_bicycle"/>
    <trip id="bike132" depart="414.02" from="-1225376812" to="-1300234214#0" departLane="best" type="bike_bicycle" departSpeed="max"/>
    <trip id="bike133" depart="417.16" from="-1190745727" to="120430418#0" departLane="best" type="bike_bicycle" departSpeed="max"/>
    <trip id="bike134" depart="420.30" from="-180214981#1" to="136448243#4" departLane="best" type="bike_bicycle"/>
    <trip id="bike135" depart="423.43" from="171203199#0" to="-180087156#0" departLane="best" type="bike_bicycle"/>
    <trip id="bike136" depart="426.57" from="1209005182#2" to="-201227515#1" departLane="best" type="bike_bicycle"/>
    <trip id="bike137" depart="429.71" from="-665140597" to="508291610#0" departLane="best" type="bike_bicycle" departSpeed="max"/>
    <trip id="bike138" depart="432.84" from="231553790#7" to="-120430418#6" departLane="best" type="bike_bicycle"/>
    <trip id="bike139" depart="435.98" from="-351924481#14" to="-212393878#2" departLane="best" type="bike_bicycle"/>
    <trip id="bike140" depart="439.11" from="-1032842998" to="200296717" departLane="best" type="bike_bicycle"/>
    <trip id="bike141" depart="442.25" from="121782801#1" to="-200537880" departLane="best" type="bike_bicycle"/>
    <trip id="bike142" depart="445.39" from="172656265#1" to="120358423#2" departLane="best" type="bike_bicycle"/>
    <trip id="bike143" depart="448.52" from="-374179013" to="-111823096#3" departLane="best" type="bike_bicycle" departSpeed="max"/>
    <trip id="bike144" depart="451.66" from="-1189304053#1" to="421266094#0" departLane="best" type="bike_bicycle"/>
    <trip id="bike145" depart="454.80" from="351924481#5" to="1199351810#1" departLane="best" type="bike_bicycle"/>
    <trip id="bike146" depart="457.93" from="212393878#1" to="126253283" departLane="best" type="bike_bicycle"/>
    <trip id="bike147" depart="461.07" from="-126253259#0" to="-136448243#0" departLane="best" type="bike_bicycle"/>
    <trip id="bike148" depart="464.21" from="-185637535#1" to="4840409#11" departLane="best" type="bike_bicycle" departSpeed="max"/>
    <trip id="bike149" depart="467.34" from="184547450#4" to="329638939#1" departLane="best" type="bike_bicycle"/>
    <trip id="bike150" depart="470.48" from="344321403#4" to="-180209324#0" departLane="best" type="bike_bicycle"/>
    <trip id="bike151" depart="473.62" from="-172659771#6" to="-125454792#2" departLane="best" type="bike_bicycle" departSpeed="max"/>
    <trip id="bike152" depart="476.75" from="181001962#4" to="421266444" departLane="best" type="bike_bicycle"/>
    <trip id="bike153" depart="479.89" from="-313512954" to="1416674381" departLane="best" type="bike_bicycle" departSpeed="max"/>
    <trip id="bike154" depart="483.03" from="-1269023351" to="58752656#0" departLane="best" type="bike_bicycle" departSpeed="max"/>
    <trip id="bike155" depart="486.16" from="257759242#4" to="798110189" departLane="best" type="bike_bicycle"/>
    <trip id="bike156" depart="489.30" from="194901666#3" to="374179013" departLane="best" type="bike_bicycle"/>
    <trip id="bike157" depart="492.44" from="-112117497#2" to="184131278#0" departLane="best" type="bike_bicycle"/>
    <trip id="bike158" depart="495.57" from="-200537878" to="608517316" departLane="best" type="bike_bicycle" departSpeed="max"/>
    <trip id="bike159" depart="498.71" from="186144713#0" to="341055726#0" departLane="best" type="bike_bicycle" departSpeed="max"/>
    <trip id="bike160" depart="501.85" from="194901666#3" to="-202382798#0" departLane="best" type="bike_bicycle"/>
    <trip id="bike161" depart="504.98" from="184131273" to="-126253251#0" departLane="best" type="bike_bicycle"/>
    <trip id="bike162" depart="508.12" from="28579337#2" to="325666723#2" departLane="best" type="bike_bicycle"/>
    <trip id="bike163" depart="511.26" from="-169994061#3" to="232661480#3" departLane="best" type="bike_bicycle" departSpeed="max"/>
    <trip id="bike164" depart="514.39" from="-523992677" to="-27033020#0" departLane="best" type="bike_bicycle" departSpeed="max"/>
    <trip id="bike165" depart="517.53" from="184547450#1" to="-181576409#0" departLane="best" type="bike_bicycle"/>
    <trip id="bike166" depart="520.66" from="-112117484" to="-172659771#4" departLane="best" type="bike_bicycle" departSpeed="max"/>
    <trip id="bike167" depart="523.80" from="-200301564" to="341055726#2" departLane="best" type="bike_bicycle" departSpeed="max"/>
    <trip id="bike168" depart="526.94" from="753805280#2" to="-218439407#4" departLane="best" type="bike_bicycle"/>
    <trip id="bike169" depart="530.07" from="1252754230#1" to="-798107747" departLane="best" type="bike_bicycle"/>
    <trip id="bike170" depart="533.21" from="802790388" to="1190745733" departLane="best" type="bike_bicycle"/>
    <trip id="bike171" depart="536.35" from="56688293" to="-1300234214#0" departLane="best" type="bike_bicycle"/>
    <trip id="bike172" depart="539.48" from="753805292#1" to="-172385221#3" departLane="best" type="bike_bicycle"/>
    <trip id="bike173" depart="542.62" from="71436274#3" to="-201527636#3" departLane="best" type="bike_bicycle"/>
    <trip id="bike174" depart="545.76" from="-1190745730#1" to="111823096#6" departLane="best" type="bike_bicycle" departSpeed="max"/>
    <trip id="bike175" depart="548.89" from="172385223#1" to="-303137351" departLane="best" type="bike_bicycle"/>
    <trip id="bike176" depart="552.03" from="1190298822#0" to="1190298830" departLane="best" type="bike_bicycle"/>
    <trip id="bike177" depart="555.17" from="-254471174" to="126253259#1" departLane="best" type="bike_bicycle" departSpeed="max"/>
    <trip id="bike178" depart="558.30" from="-179147289#0" to="180209324#1" departLane="best" type="bike_bicycle"/>
    <trip id="bike179" depart="561.44" from="1091204051" to="180625654#2" departLane="best" type="bike_bicycle" departSpeed="max"/>
    <trip id="bike180" depart="564.58" from="172656280" to="172385221#2" departLane="best" type="bike_bicycle"/>
    <trip id="bike181" depart="567.71" from="-225426575#0" to="-1190302057" departLane="best" type="bike_bicycle"/>
    <trip id="bike182" depart="570.85" from="133051053#2" to="-342044138#0" departLane="best" type="bike_bicycle"/>
    <trip id="bike183" depart="573.99" from="-193099760#3" to="302368017#2" departLane="best" type="bike_bicycle"/>
    <trip id="bike184" depart="577.12" from="171215514" to="-253307745#0" departLane="best" type="bike_bicycle"/>
    <trip id="bike185" depart="580.26" from="-187167062#0" to="-80913255#5" departLane="best" type="bike_bicycle"/>
    <trip id="bike186" depart="583.40" from="-312890364#1" to="-24683728#6" departLane="best" type="bike_bicycle" departSpeed="max"/>
    <trip id="bike187" depart="586.53" from="-120430418#0" to="-916680988" departLane="best" type="bike_bicycle"/>
    <trip id="bike188" depart="589.67" from="567661914#1" to="172387590#2" departLane="best" type="bike_bicycle"/>
    <trip id="bike189" depart="592.81" from="351924481#18" to="1414815814" departLane="best" type="bike_bicycle"/>
    <trip id="bike190" depart="595.94" from="-184133754#1" to="120278032#1" departLane="best" type="bike_bicycle"/>
    <trip id="bike191" depart="599.08" from="-1026711284" to="-231553790#4" departLane="best" type="bike_bicycle" departSpeed="max"/>
    <trip id="bike192" depart="602.21" from="-421266444" to="126253272#1" departLane="best" type="bike_bicycle" departSpeed="max"/>
    <trip id="bike193" depart="605.35" from="126253281#0" to="112654805#2" departLane="best" type="bike_bicycle"/>
    <trip id="bike194" depart="608.49" from="-4840409#6" to="-180214979#0" departLane="best" type="bike_bicycle"/>
    <trip id="bike195" depart="611.62" from="-61164307#7" to="4840453#2" departLane="best" type="bike_bicycle"/>
    <trip id="bike196" depart="614.76" from="184547450#4" to="-171203199#4" departLane="best" type="bike_bicycle"/>
    <trip id="bike197" depart="617.90" from="-1190298826#1" to="1190302055" departLane="best" type="bike_bicycle" departSpeed="max"/>
    <trip id="bike198" depart="621.03" from="120430420#6" to="-351924481#12" departLane="best" type="bike_bicycle"/>
    <trip id="bike199" depart="624.17" from="200393682" to="187167062#2" departLane="best" type="bike_bicycle"/>
    <trip id="bike200" depart="627.31" from="136448243#4" to="-181001962#3" departLane="best" type="bike_bicycle"/>
    <trip id="bike201" depart="630.44" from="-1459430910" to="-112117495" departLane="best" type="bike_bicycle" departSpeed="max"/>
    <trip id="bike202" depart="633.58" from="-172656292#0" to="112783307#1" departLane="best" type="bike_bicycle"/>
    <trip id="bike203" depart="636.72" from="232516700" to="-1190302089" departLane="best" type="bike_bicycle"/>
    <trip id="bike204" depart="639.85" from="-341781616" to="1459430909#7" departLane="best" type="bike_bicycle"/>
    <trip id="bike205" depart="642.99" from="-1459430902#0" to="179147289#0" departLane="best" type="bike_bicycle"/>
    <trip id="bike206" depart="646.13" from="-694797260" to="-184870768" departLane="best" type="bike_bicycle"/>
    <trip id="bike207" depart="649.26" from="1270843718#1" to="-1098795864" departLane="best" type="bike_bicycle"/>
    <trip id="bike208" depart="652.40" from="176913253#2" to="199430771#3" departLane="best" type="bike_bicycle"/>
    <trip id="bike209" depart="655.54" from="-1190745726" to="1028605870" departLane="best" type="bike_bicycle" departSpeed="max"/>
    <trip id="bike210" depart="658.67" from="-136449402#2" to="696466341#2" departLane="best" type="bike_bicycle"/>
    <trip id="bike211" depart="661.81" from="-80913255#3" to="-112783305#0" departLane="best" type="bike_bicycle"/>
    <trip id="bike212" depart="664.95" from="-172659771#5" to="302696863#0" departLane="best" type="bike_bicycle"/>
    <trip id="bike213" depart="668.08" from="-519928137" to="217543158" departLane="best" type="bike_bicycle" departSpeed="max"/>
    <trip id="bike214" depart="671.22" from="135737871" to="81146145#8" departLane="best" type="bike_bicycle"/>
    <trip id="bike215" depart="674.35" from="1132359828" to="670618779#5" departLane="best" type="bike_bicycle" departSpeed="max"/>
    <trip id="bike216" depart="677.49" from="337555873" to="1367405979" departLane="best" type="bike_bicycle" departSpeed="max"/>
    <trip id="bike217" depart="680.63" from="171203199#8" to="1190298813#0" departLane="best" type="bike_bicycle"/>
    <trip id="bike218" depart="683.76" from="212392696#12" to="120278032#1" departLane="best" type="bike_bicycle"/>
    <trip id="bike219" depart="686.90" from="342044138#4" to="184547450#2" departLane="best" type="bike_bicycle"/>
    <trip id="bike220" depart="690.04" from="-644044950#1" to="-199427890#1" departLane="best" type="bike_bicycle" departSpeed="max"/>
    <trip id="bike221" depart="693.17" from="-172656304#2" to="162263132#1" departLane="best" type="bike_bicycle"/>
    <trip id="bike222" depart="696.31" from="180209910#0" to="1190302092#0" departLane="best" type="bike_bicycle"/>
    <trip id="bike223" depart="699.45" from="120353053#1" to="-212392696#22" departLane="best" type="bike_bicycle"/>
    <trip id="bike224" depart="702.58" from="-1189304058#0" to="-231553790#0" departLane="best" type="bike_bicycle"/>
    <trip id="bike225" depart="705.72" from="-180214979#0" to="-324951800#0" departLane="best" type="bike_bicycle"/>
    <trip id="bike226" depart="708.86" from="1098795865" to="-1413009998" departLane="best" type="bike_bicycle" departSpeed="max"/>
    <trip id="bike227" depart="711.99" from="-172333284#0" to="176913253#1" departLane="best" type="bike_bicycle"/>
    <trip id="bike228" depart="715.13" from="169336486#1" to="-1178733363" departLane="best" type="bike_bicycle"/>
    <trip id="bike229" depart="718.27" from="-326315034" to="1192329568" departLane="best" type="bike_bicycle"/>
    <trip id="bike230" depart="721.40" from="-341839153" to="-180208176#1" departLane="best" type="bike_bicycle" departSpeed="max"/>
    <trip id="bike231" depart="724.54" from="-344239676" to="508291609#0" departLane="best" type="bike_bicycle"/>
    <trip id="bike232" depart="727.68" from="112783298#7" to="178086488#0" departLane="best" type="bike_bicycle"/>
    <trip id="bike233" depart="730.81" from="24683728#4" to="199311104#2" departLane="best" type="bike_bicycle"/>
    <trip id="bike234" depart="733.95" from="-24683729#8" to="-1098795865" departLane="best" type="bike_bicycle"/>
    <trip id="bike235" depart="737.09" from="-212392696#0" to="189017991" departLane="best" type="bike_bicycle"/>
    <trip id="bike236" depart="740.22" from="-342044138#7" to="185170302#4" departLane="best" type="bike_bicycle"/>
    <trip id="bike237" depart="743.36" from="111965821#0" to="135737879#2" departLane="best" type="bike_bicycle"/>
    <trip id="bike238" depart="746.50" from="-169994053#8" to="-180836298#1" departLane="best" type="bike_bicycle"/>