<?xml version="1.0" encoding="UTF-8"?>

<!-- generated on 2026-01-10 20:49:29.637279 by Eclipse SUMO osmWebWizard.py v1_25_0+0000-ac6c5a6752d
<configuration>
    <net-file value="C:\Users\donsa\Sumo\2026-01-10-20-48-35\osm.net.xml.gz"/>
    <output-trip-file value="C:\Users\donsa\Sumo\2026-01-10-20-48-35\osm.truck.trips.xml"/>
    <route-file value="C:\Users\donsa\Sumo\2026-01-10-20-48-35\osm.truck.rou.xml"/>
    <prefix value="truck"/>
    <trip-attributes value="departLane=&quot;best&quot;"/>
    <fringe-start-attributes value="departSpeed=&quot;max&quot;"/>
    <vehicle-class value="truck"/>
    <fringe-factor value="4"/>
    <edge-permission value="truck"/>
    <via-edge-types value="highway.motorway,highway.motorway_link,highway.trunk_link,highway.primary_link,highway.secondary_link,highway.tertiary_link"/>
    <seed value="47"/>
    <min-distance value="600.0"/>
    <min-distance.fringe value="10.0"/>
    <remove-loops value="True"/>
    <insertion-density value="6.0"/>
</configuration>
-->

<routes xmlns:xsi="http://www.w3.org/2001/XMLSchema-instance" xsi:noNamespaceSchemaLocation="http://sumo.dlr.de/xsd/routes_file.xsd">
    <vType id="truck_truck" vClass="truck"/>
    <trip id="truck0" depart="0.00" from="-24683728#2" to="111965821#2" departLane="best" type="truck_truck"/>
    <trip id="truck1" depart="3.31" from="-61164307#4" to="-4840057" departLane="best" type="truck_truck"/>
    <trip id="truck2" depart="6.62" from="-80913262#1" to="-753805286#0" departLane="best" type="truck_truck"/>
    <trip id="truck3" depart="9.93" from="-112783298#4" to="-85691133#0" departLane="best" type="truck_truck"/>
    <trip id="truck4" depart="13.24" from="-112448569#1" to="-126253283" departLane="best" type="truck_truck"/>
    <trip id="truck5" depart="16.55" from="-184133753#6" to="798107748" departLane="best" type="truck_truck"/>
    <trip id="truck6" depart="19.86" from="-661602227#1" to="135737865#0" departLane="best" type="truck_truck" departSpeed="max"/>
    <trip id="truck7" depart="23.17" from="112573864#1" to="-184133753#7" departLane="best" type="truck_truck"/>
    <trip id="truck8" depart="26.48" from="-891858753" to="-508291610#1" departLane="best" type="truck_truck"/>
    <trip id="truck9" depart="29.78" from="682063061#1" to="-112551791#2" departLane="best" type="truck_truck"/>
    <trip id="truck10" depart="33.09" from="-28598645" to="180841631#0" departLane="best" type="truck_truck" departSpeed="max"/>
    <trip id="truck11" depart="36.40" from="180537167" to="-185170302#6" departLane="best" type="truck_truck"/>
    <trip id="truck12" depart="39.71" from="232661479#2" to="58752656#0" departLane="best" type="truck_truck"/>
    <trip id="truck13" depart="43.02" from="-254487779" to="-670618779#1" departLane="best" type="truck_truck" departSpeed="max"/>
    <trip id="truck14" depart="46.33" from="111965846#2" to="-200399691" departLane="best" type="truck_truck"/>
    <trip id="truck15" depart="49.64" from="135737870#1" to="4840264#1" departLane="best" type="truck_truck"/>
    <trip id="truck16" depart="52.95" from="508291602#1" to="332495815#2" departLane="best" type="truck_truck"/>
    <trip id="truck17" depart="56.26" from="-180206393#1" to="200537881" departLane="best" type="truck_truck" departSpeed="max"/>
    <trip id="truck18" depart="59.57" from="181576409#0" to="171203199#7" departLane="best" type="truck_truck"/>
    <trip id="truck19" depart="62.88" from="153237937" to="-24683728#10" departLane="best" type="truck_truck"/>
    <trip id="truck20" depart="66.19" from="181394681" to="-185170302#8" departLane="best" type="truck_truck" departSpeed="max"/>
    <trip id="truck21" depart="69.50" from="112117495" to="-212392696#10" departLane="best" type="truck_truck" departSpeed="max"/>
    <trip id="truck22" depart="72.81" from="1111962989#0" to="-112655395#1" departLane="best" type="truck_truck" departSpeed="max"/>
    <trip id="truck23" depart="76.12" from="-184131276#1" to="199427888#1" departLane="best" type="truck_truck"/>
    <trip id="truck24" depart="79.43" from="126253244#0" to="-180216842#4" departLane="best" type="truck_truck"/>
    <trip id="truck25" depart="82.74" from="-670618779#5" to="753805290#1" departLane="best" type="truck_truck"/>
    <trip id="truck26" depart="86.05" from="80913808#2" to="1414579283" departLane="best" type="truck_truck"/>
    <trip id="truck27" depart="89.35" from="-550516974" to="80913256" departLane="best" type="truck_truck" departSpeed="max"/>
    <trip id="truck28" depart="92.66" from="111984903#5" to="24683736#1" departLane="best" type="truck_truck"/>
    <trip id="truck29" depart="95.97" from="-121782801#2" to="-212392696#7" departLane="best" type="truck_truck"/>
    <trip id="truck30" depart="99.28" from="201527636#3" to="135737865#1" departLane="best" type="truck_truck"/>
    <trip id="truck31" depart="102.59" from="184133753#7" to="111984897#7" departLane="best" type="truck_truck"/>
    <trip id="truck32" depart="105.90" from="4840388#6" to="-112551791#2" departLane="best" type="truck_truck"/>
    <trip id="truck33" depart="109.21" from="-184133754#1" to="172669926#0" departLane="best" type="truck_truck"/>
    <trip id="truck34" depart="112.52" from="-81146145#5" to="180214606#0" departLane="best" type="truck_truck"/>
    <trip id="truck35" depart="115.83" from="-649490177" to="184133756#2" departLane="best" type="truck_truck" departSpeed="max"/>
    <trip id="truck36" depart="119.14" from="193104255#1" to="-324951800#0" departLane="best" type="truck_truck"/>
    <trip id="truck37" depart="122.45" from="-112117485#1" to="-190423764#1" departLane="best" type="truck_truck"/>
    <trip id="truck38" depart="125.76" from="-243735859#1" to="85704892#1" departLane="best" type="truck_truck" departSpeed="max"/>
    <trip id="truck39" depart="129.07" from="682063061#2" to="181002516#1" departLane="best" type="truck_truck"/>
    <trip id="truck40" depart="132.38" from="-172333275#4" to="644044950#1" departLane="best" type="truck_truck"/>
    <trip id="truck41" depart="135.69" from="-1413011910" to="-162263137" departLane="best" type="truck_truck" departSpeed="max"/>
    <trip id="truck42" depart="139.00" from="184547451" to="-4840060#1" departLane="best" type="truck_truck"/>
    <trip id="truck43" depart="142.31" from="-1026711284" to="-136452126#0" departLane="best" type="truck_truck" departSpeed="max"/>
    <trip id="truck44" depart="145.62" from="-80913256" to="1196831850#1" departLane="best" type="truck_truck" departSpeed="max"/>
    <trip id="truck45" depart="148.92" from="184133754#1" to="254097239" departLane="best" type="truck_truck"/>
    <trip id="truck46" depart="152.23" from="-979666722#0" to="1459430904" departLane="best" type="truck_truck"/>
    <trip id="truck47" depart="155.54" from="-111967848" to="-120278037#1" departLane="best" type="truck_truck"/>
    <trip id="truck48" depart="158.85" from="232095621" to="646233948" departLane="best" type="truck_truck" departSpeed="max"/>
    <trip id="truck49" depart="162.16" from="-232348159#0" to="351924481#2" departLane="best" type="truck_truck"/>
    <trip id="truck50" depart="165.47" from="303142750#1" to="-184869463#2" departLane="best" type="truck_truck"/>
    <trip id="truck51" depart="168.78" from="111984925#0" to="-185170302#8" departLane="best" type="truck_truck"/>
    <trip id="truck52" depart="172.09" from="344347496#0" to="1302736567" departLane="best" type="truck_truck"/>
    <trip id="truck53" depart="175.40" from="112117466#5" to="204988276" departLane="best" type="truck_truck"/>
    <trip id="truck54" depart="178.71" from="-1209350396" to="1197279441#0" departLane="best" type="truck_truck"/>
    <trip id="truck55" depart="182.02" from="112117497#1" to="694597115" departLane="best" type="truck_truck"/>
    <trip id="truck56" depart="185.33" from="-374179013" to="-4840453#2" departLane="best" type="truck_truck" departSpeed="max"/>
    <trip id="truck57" depart="188.64" from="-200563628#2" to="329638939#1" departLane="best" type="truck_truck" departSpeed="max"/>
    <trip id="truck58" depart="191.95" from="-71436275#1" to="-169188258#0" departLane="best" type="truck_truck"/>
    <trip id="truck59" depart="195.26" from="218439407#0" to="111984897#2" departLane="best" type="truck_truck" departSpeed="max"/>
    <trip id="truck60" depart="198.57" from="112551791#1" to="212392696#0" departLane="best" type="truck_truck"/>
    <trip id="truck61" depart="201.88" from="-1190745731" to="243735492#1" departLane="best" type="truck_truck"/>
    <trip id="truck62" depart="205.19" from="184547450#0" to="1192329568" departLane="best" type="truck_truck"/>
    <trip id="truck63" depart="208.49" from="-133051049#4" to="-193647753" departLane="best" type="truck_truck"/>
    <trip id="truck64" depart="211.80" from="-112117497#0" to="-126253272#0" departLane="best" type="truck_truck"/>
    <trip id="truck65" depart="215.11" from="-648648861" to="112655396#3" departLane="best" type="truck_truck" departSpeed="max"/>
    <trip id="truck66" depart="218.42" from="-187167062#1" to="133051049#6" departLane="best" type="truck_truck"/>
    <trip id="truck67" depart="221.73" from="71436274#5" to="-179147295" departLane="best" type="truck_truck"/>
    <trip id="truck68" depart="225.04" from="169188252" to="-112655396#1" departLane="best" type="truck_truck" departSpeed="max"/>
    <trip id="truck69" depart="228.35" from="-184133753#4" to="1159188296" departLane="best" type="truck_truck"/>
    <trip id="truck70" depart="231.66" from="-120031043#0" to="232661479#2" departLane="best" type="truck_truck"/>
    <trip id="truck71" depart="234.97" from="313035385#1" to="184547450#2" departLane="best" type="truck_truck"/>
    <trip id="truck72" depart="238.28" from="185170302#5" to="162263132#1" departLane="best" type="truck_truck"/>
    <trip id="truck73" depart="241.59" from="-351924481#8" to="180836298#10" departLane="best" type="truck_truck"/>
    <trip id="truck74" depart="244.90" from="351924481#1" to="199430771#2" departLane="best" type="truck_truck"/>
    <trip id="truck75" depart="248.21" from="-126253250#2" to="652216912" departLane="best" type="truck_truck"/>
    <trip id="truck76" depart="251.52" from="-80913262#0" to="-28598668#0" departLane="best" type="truck_truck"/>
    <trip id="truck77" depart="254.83" from="-253929023#1" to="-135737870#1" departLane="best" type="truck_truck" departSpeed="max"/>
    <trip id="truck78" depart="258.14" from="514853396#1" to="341897593" departLane="best" type="truck_truck"/>
    <trip id="truck79" depart="261.45" from="508291597#1" to="172656251#2" departLane="best" type="truck_truck"/>
    <trip id="truck80" depart="264.75" from="-184557610" to="-180836298#1" departLane="best" type="truck_truck" departSpeed="max"/>
    <trip id="truck81" depart="268.06" from="-179378511#1" to="341705800#0" departLane="best" type="truck_truck" departSpeed="max"/>
    <trip id="truck82" depart="271.37" from="212392696#8" to="71436274#5" departLane="best" type="truck_truck"/>
    <trip id="truck83" depart="274.68" from="-56688293" to="220294114#3" departLane="best" type="truck_truck"/>
    <trip id="truck84" depart="277.99" from="-204983636#0" to="180214612" departLane="best" type="truck_truck"/>
    <trip id="truck85" depart="281.30" from="-169188269#2" to="1135922872" departLane="best" type="truck_truck"/>
    <trip id="truck86" depart="284.61" from="-112551791#5" to="351924481#16" departLane="best" type="truck_truck"/>
    <trip id="truck87" depart="287.92" from="-81465111#3" to="172333275#2" departLane="best" type="truck_truck"/>
    <trip id="truck88" depart="291.23" from="263114316#0" to="-251112670" departLane="best" type="truck_truck"/>
    <trip id="truck89" depart="294.54" from="-200563628#2" to="649111822" departLane="best" type="truck_truck" departSpeed="max"/>
    <trip id="truck90" depart="297.85" from="-4840288#1" to="120353047#2" departLane="best" type="truck_truck"/>
    <trip id="truck91" depart="301.16" from="661602227#0" to="120430418#7" departLane="best" type="truck_truck"/>
    <trip id="truck92" depart="304.47" from="-80913265#3" to="-313035384#0" departLane="best" type="truck_truck"/>
    <trip id="truck93" depart="307.78" from="-112117497#2" to="171603746" departLane="best" type="truck_truck"/>
    <trip id="truck94" depart="311.09" from="301924810#2" to="342044138#0" departLane="best" type="truck_truck"/>
    <trip id="truck95" depart="314.40" from="4840264#1" to="169429520#0" departLane="best" type="truck_truck"/>
    <trip id="truck96" depart="317.71" from="1137860377" to="172387586#0" departLane="best" type="truck_truck"/>
    <trip id="truck97" depart="321.02" from="-648674491" to="1420153231#1" departLane="best" type="truck_truck"/>
    <trip id="truck98" depart="324.32" from="169188269#1" to="-61164307#8" departLane="best" type="truck_truck"/>
    <trip id="truck99" depart="327.63" from="-112783299#4" to="172333269#4" departLane="best" type="truck_truck"/>
    <trip id="truck100" depart="330.94" from="-172385223#0" to="-120358423#1" departLane="best" type="truck_truck"/>
    <trip id="truck101" depart="334.25" from="-351924481#3" to="-184128908#0" departLane="best" type="truck_truck"/>
    <trip id="truck102" depart="337.56" from="-172333275#0" to="169994053#6" departLane="best" type="truck_truck"/>
    <trip id="truck103" depart="340.87" from="-120353047#0" to="-71436274#5" departLane="best" type="truck_truck"/>
    <trip id="truck104" depart="344.18" from="-313035383" to="200537878" departLane="best" type="truck_truck" departSpeed="max"/>
    <trip id="truck105" depart="347.49" from="126253250#1" to="199427889" departLane="best" type="truck_truck"/>
    <trip id="truck106" depart="350.80" from="-80913256" to="-126253282" departLane="best" type="truck_truck" departSpeed="max"/>
    <trip id="truck107" depart="354.11" from="185144671" to="-81146145#11" departLane="best" type="truck_truck"/>
    <trip id="truck108" depart="357.42" from="341055726#0" to="-133051049#6" departLane="best" type="truck_truck"/>
    <trip id="truck109" depart="360.73" from="120430420#8" to="523998500#1" departLane="best" type="truck_truck"/>
    <trip id="truck110" depart="364.04" from="224839047" to="-753805293#2" departLane="best" type="truck_truck"/>
    <trip id="truck111" depart="367.35" from="-798110191#1" to="111967844#2" departLane="best" type="truck_truck" departSpeed="max"/>
    <trip id="truck112" depart="370.66" from="4840073#5" to="-324951813" departLane="best" type="truck_truck"/>
    <trip id="truck113" depart="373.97" from="24683728#11" to="-150335301#2" departLane="best" type="truck_truck"/>
    <trip id="truck114" depart="377.28" from="135737873#0" to="-133051053#2" departLane="best" type="truck_truck"/>
    <trip id="truck115" depart="380.59" from="-670618779#5" to="798110190#1" departLane="best" type="truck_truck"/>
    <trip id="truck116" depart="383.89" from="-251112670" to="-112449586#0" departLane="best" type="truck_truck"/>
    <trip id="truck117" depart="387.20" from="1257513673#0" to="-1209005182#0" departLane="best" type="truck_truck"/>
    <trip id="truck118" depart="390.51" from="-180209910#3" to="172669925#3" departLane="best" type="truck_truck"/>
    <trip id="truck119" depart="393.82" from="-798110195" to="185170302#4" departLane="best" type="truck_truck" departSpeed="max"/>
    <trip id="truck120" depart="397.13" from="180836298#13" to="-300419126" departLane="best" type="truck_truck"/>
    <trip id="truck121" depart="400.44" from="120278036#0" to="58472957#1" departLane="best" type="truck_truck" departSpeed="max"/>
    <trip id="truck122" depart="403.75" from="-1173653416" to="187167062#5" departLane="best" type="truck_truck" departSpeed="max"/>
    <trip id="truck123" depart="407.06" from="-71436274#3" to="-187167062#0" departLane="best" type="truck_truck"/>
    <trip id="truck124" depart="410.37" from="301923334#4" to="171603746" departLane="best" type="truck_truck"/>
    <trip id="truck125" depart="413.68" from="196281733#1" to="-135737865#2" departLane="best" type="truck_truck"/>
    <trip id="truck126" depart="416.99" from="-1180587541" to="169429520#1" departLane="best" type="truck_truck" departSpeed="max"/>
    <trip id="truck127" depart="420.30" from="-180836298#12" to="351924481#14" departLane="best" type="truck_truck"/>
    <trip id="truck128" depart="423.61" from="-1209350395#1" to="126253243" departLane="best" type="truck_truck" departSpeed="max"/>
    <trip id="truck129" depart="426.92" from="172476456#0" to="-120353057" departLane="best" type="truck_truck" departSpeed="max"/>
    <trip id="truck130" depart="430.23" from="-244148417" to="753805287#4" departLane="best" type="truck_truck" departSpeed="max"/>
    <trip id="truck131" depart="433.54" from="-200535833" to="172656321#0" departLane="best" type="truck_truck" departSpeed="max"/>
    <trip id="truck132" depart="436.85" from="169188252" to="-4840283#1" departLane="best" type="truck_truck" departSpeed="max"/>
    <trip id="truck133" depart="440.16" from="-126253249#3" to="-313035385#1" departLane="best" type="truck_truck" departSpeed="max"/>
    <trip id="truck134" depart="443.46" from="-112655395#0" to="253929023#1" departLane="best" type="truck_truck"/>
    <trip id="truck135" depart="446.77" from="-1459430908" to="-344239676" departLane="best" type="truck_truck" departSpeed="max"/>
    <trip id="truck136" depart="450.08" from="776032826" to="302696863#2" departLane="best" type="truck_truck" departSpeed="max"/>
    <trip id="truck137" depart="453.39" from="181001962#0" to="180207143" departLane="best" type="truck_truck" departSpeed="max"/>
    <trip id="truck138" depart="456.70" from="58473054#0" to="111823096#8" departLane="best" type="truck_truck"/>
    <trip id="truck139" depart="460.01" from="111984903#0" to="200904720" departLane="best" type="truck_truck"/>
    <trip id="truck140" depart="463.32" from="-81465111#8" to="1116480109" departLane="best" type="truck_truck"/>
    <trip id="truck141" depart="466.63" from="-523992677" to="180214981#0" departLane="best" type="truck_truck" departSpeed="max"/>
    <trip id="truck142" depart="469.94" from="172656301#1" to="-112117476#3" departLane="best" type="truck_truck"/>
    <trip id="truck143" depart="473.25" from="753805292#1" to="-112783304#0" departLane="best" type="truck_truck"/>
    <trip id="truck144" depart="476.56" from="550516976#0" to="523992677" departLane="best" type="truck_truck" departSpeed="max"/>
    <trip id="truck145" depart="479.87" from="-126253263#1" to="-351924481#16" departLane="best" type="truck_truck" departSpeed="max"/>
    <trip id="truck146" depart="483.18" from="179147289#1" to="-112783313#7" departLane="best" type="truck_truck"/>
    <trip id="truck147" depart="486.49" from="4840264#0" to="180209910#4" departLane="best" type="truck_truck"/>
    <trip id="truck148" depart="489.80" from="-649111822" to="58473054#2" departLane="best" type="truck_truck" departSpeed="max"/>
    <trip id="truck149" depart="493.11" from="-81146145#9" to="181002516#1" departLane="best" type="truck_truck"/>
    <trip id="truck150" depart="496.42" from="-135737884" to="648646645" departLane="best" type="truck_truck"/>
    <trip id="truck151" depart="499.73" from="-172659771#1" to="-112117495" departLane="best" type="truck_truck"/>
    <trip id="truck152" depart="503.03" from="-753805292#1" to="622814978" departLane="best" type="truck_truck"/>
    <trip id="truck153" depart="506.34" from="162248956#1" to="218439408#1" departLane="best" type="truck_truck"/>
    <trip id="truck154" depart="509.65" from="-120278040" to="200563628#1" departLane="best" type="truck_truck"/>
    <trip id="truck155" depart="512.96" from="416215273" to="-27033019#1" departLane="best" type="truck_truck"/>
    <trip id="truck156" depart="516.27" from="133051043#2" to="341769521#1" departLane="best" type="truck_truck"/>
    <trip id="truck157" depart="519.58" from="-111823096#6" to="-4840060#3" departLane="best" type="truck_truck"/>
    <trip id="truck158" depart="522.89" from="-172656265#3" to="-180841632#4" departLane="best" type="truck_truck" departSpeed="max"/>
    <trip id="truck159" depart="526.20" from="351924481#6" to="-151883459#0" departLane="best" type="truck_truck"/>
    <trip id="truck160" depart="529.51" from="753805280#1" to="172333284#5" departLane="best" type="truck_truck"/>
    <trip id="truck161" depart="532.82" from="190423764#0" to="254487779" departLane="best" type="truck_truck"/>
    <trip id="truck162" depart="536.13" from="-200563623" to="180209915" departLane="best" type="truck_truck" departSpeed="max"/>
    <trip id="truck163" depart="539.44" from="-4840283#0" to="1026711284" departLane="best" type="truck_truck"/>
    <trip id="truck164" depart="542.75" from="-4840054#1" to="201527636#1" departLane="best" type="truck_truck"/>
    <trip id="truck165" depart="546.06" from="71436274#5" to="-112783298#7" departLane="best" type="truck_truck"/>
    <trip id="truck166" depart="549.37" from="112551797#0" to="180842029" departLane="best" type="truck_truck"/>
    <trip id="truck167" depart="552.68" from="-753805286#0" to="-218439407#5" departLane="best" type="truck_truck"/>
    <trip id="truck168" depart="555.99" from="-172656251#0" to="-81465111#8" departLane="best" type="truck_truck"/>
    <trip id="truck169" depart="559.29" from="-81465111#3" to="-4840264#0" departLane="best" type="truck_truck"/>
    <trip id="truck170" depart="562.60" from="753805287#4" to="351924481#3" departLane="best" type="truck_truck"/>
    <trip id="truck171" depart="565.91" from="-523998500#1" to="307093896" departLane="best" type="truck_truck" departSpeed="max"/>
    <trip id="truck172" depart="569.22" from="81465111#8" to="-1194719931" departLane="best" type="truck_truck"/>
    <trip id="truck173" depart="572.53" from="-649966504" to="-1190745708" departLane="best" type="truck_truck" departSpeed="max"/>
    <trip id="truck174" depart="575.84" from="-169994053#2" to="-184131279#1" departLane="best" type="truck_truck"/>
    <trip id="truck175" depart="579.15" from="-4840283#1" to="243735859#1" departLane="best" type="truck_truck"/>
    <trip id="truck176" depart="582.46" from="-200537876" to="-135739027" departLane="best" type="truck_truck" departSpeed="max"/>
    <trip id="truck177" depart="585.77" from="112551791#4" to="-111967844#0" departLane="best" type="truck_truck"/>
    <trip id="truck178" depart="589.08" from="1116869264" to="1274917531" departLane="best" type="truck_truck"/>
    <trip id="truck179" depart="592.39" from="-649490177" to="753805293#0" departLane="best" type="truck_truck" departSpeed="max"/>
    <trip id="truck180" depart="595.70" from="-220294114#5" to="577458435#5" departLane="best" type="truck_truck"/>
    <trip id="truck181" depart="599.01" from="152409656#0" to="169188264#1" departLane="best" type="truck_truck"/>
    <trip id="truck182" depart="602.32" from="-212393878#1" to="253929023#1" departLane="best" type="truck_truck"/>
    <trip id="truck183" depart="605.63" from="111845389#1" to="508291608" departLane="best" type="truck_truck"/>
    <trip id="truck184" depart="608.94" from="-1304877663" to="-303140839" departLane="best" type="truck_truck" departSpeed="max"/>
    <trip id="truck185" depart="612.25" from="-112783312#1" to="-181002516#0" departLane="best" type="truck_truck"/>
    <trip id="truck186" depart="615.56" from="212392696#9" to="126253263#1" departLane="best" type="truck_truck"/>
    <trip id="truck187" depart="618.86" from="112117485#0" to="-112783304#0" departLane="best" type="truck_truck" departSpeed="max"/>
    <trip id="truck188" depart="622.17" from="342044138#0" to="112783297#3" departLane="best" type="truck_truck"/>
    <trip id="truck189" depart="625.48" from="-126253249#3" to="-231553790#7" departLane="best" type="truck_truck" departSpeed="max"/>
    <trip id="truck190" depart="628.79" from="162248956#0" to="172656276#0" departLane="best" type="truck_truck"/>
    <trip id="truck191" depart="632.10" from="-341055727" to="-4840288#1" departLane="best" type="truck_truck"/>
    <trip id="truck192" depart="635.41" from="332495815#1" to="-28579038#2" departLane="best" type="truck_truck"/>
    <trip id="truck193" depart="638.72" from="172387589#0" to="-112783307#0" departLane="best" type="truck_truck"/>
    <trip id="truck194" depart="642.03" from="4840288#1" to="112783297#0" departLane="best" type="truck_truck"/>
    <trip id="truck195" depart="645.34" from="172659770#0" to="-351924481#0" departLane="best" type="truck_truck" departSpeed="max"/>
    <trip id="truck196" depart="648.65" from="-126253249#3" to="341839156" departLane="best" type="truck_truck" departSpeed="max"/>
    <trip id="truck197" depart="651.96" from="61164307#10" to="-58425711#2" departLane="best" type="truck_truck"/>
    <trip id="truck198" depart="655.27" from="-126253268" to="-61164307#9" departLane="best" type="truck_truck"/>
    <trip id="truck199" depart="658.58" from="-172333275#2" to="-112449586#0" departLane="best" type="truck_truck"/>
    <trip id="truck200" depart="661.89" from="112783297#0" to="180214981#0" departLane="best" type="truck_truck"/>
    <trip id="truck201" depart="665.20" from="201527636#1" to="798110191#1" departLane="best" type="truck_truck"/>
    <trip id="truck202" depart="668.51" from="-136527497" to="-181581465#4" departLane="best" type="truck_truck" departSpeed="max"/>
    <trip id="truck203" depart="671.82" from="-111965821#1" to="111823096#2" departLane="best" type="truck_truck"/>
    <trip id="truck204" depart="675.13" from="172385221#1" to="162263132#0" departLane="best" type="truck_truck"/>
    <trip id="truck205" depart="678.43" from="-1413011910" to="218439407#6" departLane="best" type="truck_truck" departSpeed="max"/>
    <trip id="truck206" depart="681.74" from="179147294#0" to="200537877#1" departLane="best" type="truck_truck" departSpeed="max"/>
    <trip id="truck207" depart="685.05" from="-286939358" to="172659771#0" departLane="best" type="truck_truck" departSpeed="max"/>
    <trip id="truck208" depart="688.36" from="891858754" to="-212392696#15" departLane="best" type="truck_truck"/>
    <trip id="truck209" depart="691.67" from="218439407#4" to="-169994053#2" departLane="best" type="truck_truck"/>
    <trip id="truck210" depart="694.98" from="-112783298#0" to="-187167062#1" departLane="best" type="truck_truck"/>
    <trip id="truck211" depart="698.29" from="172659771#4" to="-142107922#2" departLane="best" type="truck_truck"/>
    <trip id="truck212" depart="701.60" from="4825630#1" to="-165226102#1" departLane="best" type="truck_truck"/>
    <trip id="truck213" depart="704.91" from="-81146155#1" to="-1416688295" departLane="best" type="truck_truck"/>
    <trip id="truck214" depart="708.22" from="24684287#2" to="661602226#1" departLane="best" type="truck_truck"/>
    <trip id="truck215" depart="711.53" from="111984903#6" to="753805293#3" departLane="best" type="truck_truck"/>
    <trip id="truck216" depart="714.84" from="-112117497#3" to="231553790#14" departLane="best" type="truck_truck"/>
    <trip id="truck217" depart="718.15" from="126253265" to="-169994051#1" departLane="best" type="truck_truck"/>
    <trip id="truck218" depart="721.46" from="-180214612" to="-136448243#6" departLane="best" type="truck_truck" departSpeed="max"/>
    <trip id="truck219" depart="724.77" from="344321403#2" to="-243735859#0" departLane="best" type="truck_truck"/>
    <trip id="truck220" depart="728.08" from="-670618779#1" to="24707457" departLane="best" type="truck_truck"/>
    <trip id="truck221" depart="731.39" from="120278036#0" to="-80913265#4" departLane="best" type="truck_truck" departSpeed="max"/>
    <trip id="truck222" depart="734.70" from="508291597#2" to="112551784" departLane="best" type="truck_truck"/>
    <trip id="truck223" depart="738.00" from="-172387586#1" to="111823096#3" departLane="best" type="truck_truck"/>
    <trip id="truck224" depart="741.31" from="184870767#0" to="416222454#0" departLane="best" type="truck_truck" departSpeed="max"/>
    <trip id="truck225" depart="744.62" from="-753805280#0" to="-80913255#5" departLane="best" type="truck_truck"/>
    <trip id="truck226" depart="747.93" from="348686134" to="-753805290#1" departLane="best" type="truck_truck" departSpeed="max"/>
    <trip id="truck227" depart="751.24" from="220294114#6" to="-112573862#0" departLane="best" type="truck_truck"/>
    <trip id="truck228" depart="754.55" from="180836298#10" to="-218439407#0" departLane="best" type="truck_truck"/>
    <trip id="truck229" depart="757.86" from="-649070251" to="-126253280" departLane="best" type="truck_truck" departSpeed="max"/>
    <trip id="truck230" depart="761.17" from="324951813" to="180205047" departLane="best" type="truck_truck" departSpeed="max"/>
    <trip id="truck231" depart="764.48" from="112783314#1" to="-550516976#0" departLane="best" type="truck_truck"/>
    <trip id="truck232" depart="767.79" from="126253281#1" to="4840453#1" departLane="best" type="truck_truck"/>
    <trip id="truck233" depart="771.10" from="1375771794" to="151883457" departLane="best" type="truck_truck" departSpeed="max"/>
    <trip id="truck234" depart="774.41" from="-153237894" to="-202983110#0" departLane="best" type="truck_truck" departSpeed="max"/>
    <trip id="truck235" depart="777.72" from="190423764#2" to="-81146145#2" departLane="best" type="truck_truck"/>
    <trip id="truck236" depart="781.03" from="172387593#2" to="-169994053#2" departLane="best" type="truck_truck"/>
    <trip id="truck237" depart="784.34" from="58425711#1" to="-344321403#2" departLane="best" type="truck_truck"/>
    <trip id="truck238" depart="787.65" from="136448243#4" to="-180214981#1" departLane="best" type="truck_truck"/>