<?xml version="1.0" encoding="UTF-8"?>

<!-- generated on 2026-01-10 20:49:16.618569 by Eclipse SUMO osmWebWizard.py v1_25_0+0000-ac6c5a6752d
<configuration>
    <net-file value="C:\Users\donsa\Sumo\2026-01-10-20-48-35\osm.net.xml.gz"/>
    <output-trip-file value="C:\Users\donsa\Sumo\2026-01-10-20-48-35\osm.passenger.trips.xml"/>
    <route-file value="C:\Users\donsa\Sumo\2026-01-10-20-48-35\osm.passenger.rou.xml"/>
    <prefix value="veh"/>
    <trip-attributes value="departLane=&quot;best&quot;"/>
    <fringe-start-attributes value="departSpeed=&quot;max&quot;"/>
    <vehicle-class value="passenger"/>
    <lanes value="True"/>
    <fringe-factor value="5"/>
    <allow-fringe.min-length value="1000.0"/>
    <edge-permission value="passenger"/>
    <via-edge-types value="highway.motorway,highway.motorway_link,highway.trunk_link,highway.primary_link,highway.secondary_link,highway.tertiary_link"/>
    <seed value="45"/>
    <min-distance value="300.0"/>
    <min-distance.fringe value="10.0"/>
    <remove-loops value="True"/>
    <insertion-density value="12.0"/>
</configuration>
-->

<routes xmlns:xsi="http://www.w3.org/2001/XMLSchema-instance" xsi:noNamespaceSchemaLocation="http://sumo.dlr.de/xsd/routes_file.xsd">
    <vType id="veh_passenger" vClass="passenger"/>
    <trip id="veh0" depart="0.00" from="-1257513673#2" to="-4840409#1" departLane="best" type="veh_passenger"/>
    <trip id="veh1" depart="1.65" from="-120430418#2" to="-111967844#0" departLane="best" type="veh_passenger"/>
    <trip id="veh2" depart="3.31" from="-200399690" to="-1375771794" departLane="best" type="veh_passenger"/>
    <trip id="veh3" depart="4.96" from="-212392696#12" to="202207741" departLane="best" type="veh_passenger"/>
    <trip id="veh4" depart="6.62" from="-112783298#1" to="172656265#3" departLane="best" type="veh_passenger"/>
    <trip id="veh5" depart="8.27" from="-151883459#1" to="24684287#2" departLane="best" type="veh_passenger" departSpeed="max"/>
    <trip id="veh6" depart="9.93" from="179147299" to="-181581465#1" departLane="best" type="veh_passenger" departSpeed="max"/>
    <trip id="veh7" depart="11.58" from="253307745#1" to="199427890#1" departLane="best" type="veh_passenger"/>
    <trip id="veh8" depart="13.24" from="-120430418#7" to="1026711284" departLane="best" type="veh_passenger"/>
    <trip id="veh9" depart="14.89" from="172387565#0" to="648648861" departLane="best" type="veh_passenger"/>
    <trip id="veh10" depart="16.55" from="-172385223#0" to="-215212429" departLane="best" type="veh_passenger"/>
    <trip id="veh11" depart="18.20" from="184547450#3" to="753805285" departLane="best" type="veh_passenger"/>
    <trip id="veh12" depart="19.86" from="-126253272#1" to="-126253252" departLane="best" type="veh_passenger" departSpeed="max"/>
    <trip id="veh13" depart="21.51" from="180216842#5" to="-348686134" departLane="best" type="veh_passenger"/>
    <trip id="veh14" depart="23.17" from="-337746501#0" to="4840092" departLane="best" type="veh_passenger"/>
    <trip id="veh15" depart="24.82" from="180209325" to="180211679#3" departLane="best" type="veh_passenger"/>
    <trip id="veh16" depart="26.48" from="28598634" to="200563628#1" departLane="best" type="veh_passenger"/>
    <trip id="veh17" depart="28.13" from="218316959#1" to="180087155" departLane="best" type="veh_passenger"/>
    <trip id="veh18" depart="29.78" from="120278032#0" to="-1198619516" departLane="best" type="veh_passenger" departSpeed="max"/>
    <trip id="veh19" depart="31.44" from="4840073#5" to="58473054#1" departLane="best" type="veh_passenger"/>
    <trip id="veh20" depart="33.09" from="-254097239" to="172656288" departLane="best" type="veh_passenger" departSpeed="max"/>
    <trip id="veh21" depart="34.75" from="-112117466#8" to="126253251#2" departLane="best" type="veh_passenger"/>
    <trip id="veh22" depart="36.40" from="126253274" to="-301923334#0" departLane="best" type="veh_passenger" departSpeed="max"/>
    <trip id="veh23" depart="38.06" from="-4840264#5" to="313035385#1" departLane="best" type="veh_passenger"/>
    <trip id="veh24" depart="39.71" from="-169078007#0" to="112783620#0" departLane="best" type="veh_passenger"/>
    <trip id="veh25" depart="41.37" from="-126253250#1" to="-756857408" departLane="best" type="veh_passenger"/>
    <trip id="veh26" depart="43.02" from="332495815#0" to="172387589#0" departLane="best" type="veh_passenger" departSpeed="max"/>
    <trip id="veh27" depart="44.68" from="-1125794177" to="348686135" departLane="best" type="veh_passenger" departSpeed="max"/>
    <trip id="veh28" depart="46.33" from="151883456#2" to="133051041#1" departLane="best" type="veh_passenger"/>
    <trip id="veh29" depart="47.99" from="-200537878" to="-324951800#0" departLane="best" type="veh_passenger" departSpeed="max"/>
    <trip id="veh30" depart="49.64" from="-1137863881" to="661602227#0" departLane="best" type="veh_passenger" departSpeed="max"/>
    <trip id="veh31" depart="51.30" from="-1304877663" to="172656265#3" departLane="best" type="veh_passenger" departSpeed="max"/>
    <trip id="veh32" depart="52.95" from="112783311" to="-61164307#10" departLane="best" type="veh_passenger" departSpeed="max"/>
    <trip id="veh33" depart="54.61" from="-199430771#2" to="112654805#1" departLane="best" type="veh_passenger"/>
    <trip id="veh34" depart="56.26" from="-232661480#1" to="798107754" departLane="best" type="veh_passenger"/>
    <trip id="veh35" depart="57.92" from="136449402#1" to="1307629469" departLane="best" type="veh_passenger"/>
    <trip id="veh36" depart="59.57" from="168948326#3" to="1257513673#2" departLane="best" type="veh_passenger"/>
    <trip id="veh37" depart="61.22" from="-169429520#1" to="-112117485#0" departLane="best" type="veh_passenger" departSpeed="max"/>
    <trip id="veh38" depart="62.88" from="753805287#2" to="337154627#1" departLane="best" type="veh_passenger"/>
    <trip id="veh39" depart="64.53" from="-126253277" to="172387586#0" departLane="best" type="veh_passenger" departSpeed="max"/>
    <trip id="veh40" depart="66.19" from="187167062#3" to="508291609#2" departLane="best" type="veh_passenger"/>
    <trip id="veh41" depart="67.84" from="-120031048" to="-169188267" departLane="best" type="veh_passenger"/>
    <trip id="veh42" depart="69.50" from="-341897593" to="172385221#5" departLane="best" type="veh_passenger" departSpeed="max"/>
    <trip id="veh43" depart="71.15" from="-126253242#0" to="184547450#4" departLane="best" type="veh_passenger"/>
    <trip id="veh44" depart="72.81" from="180836298#11" to="112783299#0" departLane="best" type="veh_passenger"/>
    <trip id="veh45" depart="74.46" from="257759242#0" to="-798110188" departLane="best" type="veh_passenger"/>
    <trip id="veh46" depart="76.12" from="232661480#0" to="-753805290#0" departLane="best" type="veh_passenger"/>
    <trip id="veh47" depart="77.77" from="-351924481#4" to="-71436275#1" departLane="best" type="veh_passenger"/>
    <trip id="veh48" depart="79.43" from="172387591#3" to="4840288#0" departLane="best" type="veh_passenger"/>
    <trip id="veh49" depart="81.08" from="-120430418#2" to="171603744#1" departLane="best" type="veh_passenger"/>
    <trip id="veh50" depart="82.74" from="232661480#6" to="184131279#2" departLane="best" type="veh_passenger"/>
    <trip id="veh51" depart="84.39" from="-180837170" to="-61164307#8" departLane="best" type="veh_passenger" departSpeed="max"/>
    <trip id="veh52" depart="86.05" from="649966500" to="-798110194" departLane="best" type="veh_passenger" departSpeed="max"/>
    <trip id="veh53" depart="87.70" from="-916680987" to="189015798" departLane="best" type="veh_passenger" departSpeed="max"/>
    <trip id="veh54" depart="89.35" from="169994061#0" to="171603744#1" departLane="best" type="veh_passenger"/>
    <trip id="veh55" depart="91.01" from="4840283#2" to="180207143" departLane="best" type="veh_passenger"/>
    <trip id="veh56" depart="92.66" from="120031043#2" to="-1135922872" departLane="best" type="veh_passenger"/>
    <trip id="veh57" depart="94.32" from="4840073#0" to="-187167062#3" departLane="best" type="veh_passenger"/>
    <trip id="veh58" depart="95.97" from="-180216845#6" to="-112783311" departLane="best" type="veh_passenger"/>
    <trip id="veh59" depart="97.63" from="126253264#1" to="-670618779#0" departLane="best" type="veh_passenger"/>
    <trip id="veh60" depart="99.28" from="1420153231#1" to="28543722#1" departLane="best" type="veh_passenger"/>
    <trip id="veh61" depart="100.94" from="577458435#4" to="254487779" departLane="best" type="veh_passenger"/>
    <trip id="veh62" depart="102.59" from="243735492#0" to="-753805287#0" departLane="best" type="veh_passenger"/>
    <trip id="veh63" depart="104.25" from="-1159188296" to="231414549#4" departLane="best" type="veh_passenger" departSpeed="max"/>
    <trip id="veh64" depart="105.90" from="891858754" to="1173652501" departLane="best" type="veh_passenger"/>
    <trip id="veh65" depart="107.56" from="351926855#1" to="169337735#0" departLane="best" type="veh_passenger"/>
    <trip id="veh66" depart="109.21" from="-337154622" to="307093896" departLane="best" type="veh_passenger" departSpeed="max"/>
    <trip id="veh67" depart="110.87" from="-120031043#1" to="-61164307#2" departLane="best" type="veh_passenger"/>
    <trip id="veh68" depart="112.52" from="172385221#1" to="-121782801#0" departLane="best" type="veh_passenger"/>
    <trip id="veh69" depart="114.18" from="112551783#0" to="-798110188" departLane="best" type="veh_passenger"/>
    <trip id="veh70" depart="115.83" from="-180211679#3" to="-909820366" departLane="best" type="veh_passenger" departSpeed="max"/>
    <trip id="veh71" depart="117.49" from="180208176#1" to="180836298#11" departLane="best" type="veh_passenger"/>
    <trip id="veh72" depart="119.14" from="120277841" to="232661480#0" departLane="best" type="veh_passenger" departSpeed="max"/>
    <trip id="veh73" depart="120.79" from="-4840054#1" to="171203194#0" departLane="best" type="veh_passenger"/>
    <trip id="veh74" depart="122.45" from="-1274917532" to="180211674" departLane="best" type="veh_passenger" departSpeed="max"/>
    <trip id="veh75" depart="124.10" from="169188267" to="172656288" departLane="best" type="veh_passenger"/>
    <trip id="veh76" depart="125.76" from="200563622#1" to="80913265#4" departLane="best" type="veh_passenger"/>
    <trip id="veh77" depart="127.41" from="172659771#0" to="798110189" departLane="best" type="veh_passenger"/>
    <trip id="veh78" depart="129.07" from="1459430902#0" to="-248967187" departLane="best" type="veh_passenger"/>
    <trip id="veh79" depart="130.72" from="28579337#6" to="180836298#1" departLane="best" type="veh_passenger"/>
    <trip id="veh80" depart="132.38" from="126253283" to="-172333269#3" departLane="best" type="veh_passenger"/>
    <trip id="veh81" depart="134.03" from="112783297#2" to="-4840409#3" departLane="best" type="veh_passenger"/>
    <trip id="veh82" depart="135.69" from="112783312#0" to="648648861" departLane="best" type="veh_passenger"/>
    <trip id="veh83" depart="137.34" from="-1428906585#0" to="1459430902#1" departLane="best" type="veh_passenger"/>
    <trip id="veh84" depart="139.00" from="24683729#6" to="-112783311" departLane="best" type="veh_passenger"/>
    <trip id="veh85" depart="140.65" from="-4840264#1" to="-4840409#10" departLane="best" type="veh_passenger"/>
    <trip id="veh86" depart="142.31" from="-577458435#4" to="172656292#2" departLane="best" type="veh_passenger"/>
    <trip id="veh87" depart="143.96" from="-798110192" to="-24683728#1" departLane="best" type="veh_passenger" departSpeed="max"/>
    <trip id="veh88" depart="145.62" from="300419126" to="27033019#4" departLane="best" type="veh_passenger" departSpeed="max"/>
    <trip id="veh89" depart="147.27" from="351924481#4" to="-152409656#2" departLane="best" type="veh_passenger"/>
    <trip id="veh90" depart="148.92" from="111967848" to="-199427887" departLane="best" type="veh_passenger"/>
    <trip id="veh91" depart="150.58" from="-126253280" to="648698964" departLane="best" type="veh_passenger"/>
    <trip id="veh92" depart="152.23" from="153237862#2" to="1132359826" departLane="best" type="veh_passenger"/>
    <trip id="veh93" depart="153.89" from="181576785" to="341884382#0" departLane="best" type="veh_passenger"/>
    <trip id="veh94" depart="155.54" from="-649469749" to="-135739027" departLane="best" type="veh_passenger" departSpeed="max"/>
    <trip id="veh95" depart="157.20" from="416222454#1" to="126253272#1" departLane="best" type="veh_passenger"/>
    <trip id="veh96" depart="158.85" from="-4840288#0" to="-180214979#1" departLane="best" type="veh_passenger"/>
    <trip id="veh97" depart="160.51" from="514853396#0" to="-170559623#3" departLane="best" type="veh_passenger"/>
    <trip id="veh98" depart="162.16" from="-136527497" to="81465111#6" departLane="best" type="veh_passenger" departSpeed="max"/>
    <trip id="veh99" depart="163.82" from="105069931#1" to="174884532#2" departLane="best" type="veh_passenger"/>
    <trip id="veh100" depart="165.47" from="172385216#0" to="111823096#5" departLane="best" type="veh_passenger"/>
    <trip id="veh101" depart="167.13" from="-342751896#1" to="4825630#1" departLane="best" type="veh_passenger"/>
    <trip id="veh102" depart="168.78" from="126253274" to="-112117485#1" departLane="best" type="veh_passenger" departSpeed="max"/>
    <trip id="veh103" depart="170.44" from="-112783299#4" to="313512954" departLane="best" type="veh_passenger"/>
    <trip id="veh104" depart="172.09" from="120278032#0" to="202382798#2" departLane="best" type="veh_passenger" departSpeed="max"/>
    <trip id="veh105" depart="173.75" from="-252929776#0" to="-649070248#2" departLane="best" type="veh_passenger"/>
    <trip id="veh106" depart="175.40" from="-24683728#2" to="-301923334#0" departLane="best" type="veh_passenger"/>
    <trip id="veh107" depart="177.05" from="61164307#7" to="4840092" departLane="best" type="veh_passenger"/>
    <trip id="veh108" depart="178.71" from="112117477" to="-112783299#5" departLane="best" type="veh_passenger" departSpeed="max"/>
    <trip id="veh109" depart="180.36" from="508291601" to="27033019#1" departLane="best" type="veh_passenger"/>
    <trip id="veh110" depart="182.02" from="135737882" to="753805287#3" departLane="best" type="veh_passenger"/>
    <trip id="veh111" depart="183.67" from="180836298#11" to="172387565#1" departLane="best" type="veh_passenger"/>
    <trip id="veh112" depart="185.33" from="-243774291" to="172656251#0" departLane="best" type="veh_passenger" departSpeed="max"/>
    <trip id="veh113" depart="186.98" from="-4840409#3" to="-176144622" departLane="best" type="veh_passenger"/>
    <trip id="veh114" depart="188.64" from="-171381316" to="-135739027" departLane="best" type="veh_passenger" departSpeed="max"/>
    <trip id="veh115" depart="190.29" from="171203199#0" to="-71436274#1" departLane="best" type="veh_passenger"/>
    <trip id="veh116" depart="191.95" from="81146145#10" to="61164307#2" departLane="best" type="veh_passenger"/>
    <trip id="veh117" depart="193.60" from="-200535833" to="-135737870#0" departLane="best" type="veh_passenger" departSpeed="max"/>
    <trip id="veh118" depart="195.26" from="232516700" to="341884382#3" departLane="best" type="veh_passenger"/>
    <trip id="veh119" depart="196.91" from="-286939358" to="224839047" departLane="best" type="veh_passenger" departSpeed="max"/>
    <trip id="veh120" depart="198.57" from="56688293" to="112783298#6" departLane="best" type="veh_passenger"/>
    <trip id="veh121" depart="200.22" from="-58425711#1" to="172387593#2" departLane="best" type="veh_passenger"/>
    <trip id="veh122" depart="201.88" from="24683736#3" to="185637535#1" departLane="best" type="veh_passenger"/>
    <trip id="veh123" depart="203.53" from="81146145#10" to="-171381211#1" departLane="best" type="veh_passenger"/>
    <trip id="veh124" depart="205.19" from="-126253276" to="-142107922#2" departLane="best" type="veh_passenger"/>
    <trip id="veh125" depart="206.84" from="567661914#2" to="-303140839" departLane="best" type="veh_passenger"/>
    <trip id="veh126" depart="208.49" from="-120430418#5" to="-172385221#0" departLane="best" type="veh_passenger"/>
    <trip id="veh127" depart="210.15" from="-112551783#0" to="136527497" departLane="best" type="veh_passenger"/>
    <trip id="veh128" depart="211.80" from="135737866#2" to="-263115604" departLane="best" type="veh_passenger"/>
    <trip id="veh129" depart="213.46" from="-112117484" to="-1126610601" departLane="best" type="veh_passenger" departSpeed="max"/>
    <trip id="veh130" depart="215.11" from="-181001962#7" to="112783299#7" departLane="best" type="veh_passenger"/>
    <trip id="veh131" depart="216.77" from="-4840264#0" to="649070251" departLane="best" type="veh_passenger"/>
    <trip id="veh132" depart="218.42" from="517838819#2" to="126253259#0" departLane="best" type="veh_passenger"/>
    <trip id="veh133" depart="220.08" from="125454792#2" to="-567661914#1" departLane="best" type="veh_passenger"/>
    <trip id="veh134" depart="221.73" from="136448243#0" to="-1135922872" departLane="best" type="veh_passenger" departSpeed="max"/>
    <trip id="veh135" depart="223.39" from="-172656292#0" to="28598668#1" departLane="best" type="veh_passenger"/>
    <trip id="veh136" depart="225.04" from="-648699881" to="1257513673#3" departLane="best" type="veh_passenger" departSpeed="max"/>
    <trip id="veh137" depart="226.70" from="232661479#1" to="180208176#1" departLane="best" type="veh_passenger"/>
    <trip id="veh138" depart="228.35" from="-172385221#1" to="1176845457" departLane="best" type="veh_passenger"/>
    <trip id="veh139" depart="230.01" from="27033020#0" to="-517838820#0" departLane="best" type="veh_passenger" departSpeed="max"/>
    <trip id="veh140" depart="231.66" from="649101850#0" to="-180214981#1" departLane="best" type="veh_passenger" departSpeed="max"/>
    <trip id="veh141" depart="233.32" from="-342963781" to="-180209325" departLane="best" type="veh_passenger" departSpeed="max"/>
    <trip id="veh142" depart="234.97" from="-200393688" to="-184547451" departLane="best" type="veh_passenger"/>
    <trip id="veh143" depart="236.62" from="1420153231#1" to="204988276" departLane="best" type="veh_passenger"/>
    <trip id="veh144" depart="238.28" from="313035385#0" to="-169994053#9" departLane="best" type="veh_passenger"/>
    <trip id="veh145" depart="239.93" from="891858756#0" to="181583835#1" departLane="best" type="veh_passenger"/>
    <trip id="veh146" depart="241.59" from="-190423764#3" to="180836298#7" departLane="best" type="veh_passenger"/>
    <trip id="veh147" depart="243.24" from="1226637044" to="-547414446" departLane="best" type="veh_passenger" departSpeed="max"/>
    <trip id="veh148" depart="244.90" from="-199311106" to="-1257513673#4" departLane="best" type="veh_passenger" departSpeed="max"/>
    <trip id="veh149" depart="246.55" from="-180209910#5" to="348686132" departLane="best" type="veh_passenger"/>
    <trip id="veh150" depart="248.21" from="-61164307#5" to="-199311094#0" departLane="best" type="veh_passenger"/>
    <trip id="veh151" depart="249.86" from="-517838820#1" to="-185170302#0" departLane="best" type="veh_passenger"/>
    <trip id="veh152" depart="251.52" from="-508291613#0" to="-180211679#0" departLane="best" type="veh_passenger"/>
    <trip id="veh153" depart="253.17" from="-1459430909#6" to="24683736#3" departLane="best" type="veh_passenger"/>
    <trip id="veh154" depart="254.83" from="-212392696#15" to="181576786" departLane="best" type="veh_passenger"/>
    <trip id="veh155" depart="256.48" from="508291601" to="61164307#1" departLane="best" type="veh_passenger"/>
    <trip id="veh156" depart="258.14" from="232661480#3" to="126253249#3" departLane="best" type="veh_passenger"/>
    <trip id="veh157" depart="259.79" from="169442483" to="126253263#1" departLane="best" type="veh_passenger" departSpeed="max"/>
    <trip id="veh158" depart="261.45" from="-24683728#12" to="342963781" departLane="best" type="veh_passenger"/>
    <trip id="veh159" depart="263.10" from="180216845#6" to="244148417" departLane="best" type="veh_passenger"/>
    <trip id="veh160" depart="264.75" from="-24683728#1" to="1274917531" departLane="best" type="veh_passenger"/>
    <trip id="veh161" depart="266.41" from="184869463#3" to="567661914#3" departLane="best" type="veh_passenger"/>
    <trip id="veh162" depart="268.06" from="-753805285" to="199427889" departLane="best" type="veh_passenger"/>
    <trip id="veh163" depart="269.72" from="1126610601" to="-186144713#0" departLane="best" type="veh_passenger"/>
    <trip id="veh164" depart="271.37" from="302368017#3" to="1459430903" departLane="best" type="veh_passenger"/>
    <trip id="veh165" depart="273.03" from="-172387565#0" to="171203194#0" departLane="best" type="veh_passenger"/>
    <trip id="veh166" depart="274.68" from="28543722#1" to="-172387591#2" departLane="best" type="veh_passenger"/>
    <trip id="veh167" depart="276.34" from="-172333269#4" to="176144614#1" departLane="best" type="veh_passenger" departSpeed="max"/>
    <trip id="veh168" depart="277.99" from="-153237862#5" to="225426575#2" departLane="best" type="veh_passenger" departSpeed="max"/>
    <trip id="veh169" depart="279.65" from="1209005182#2" to="120278036#3" departLane="best" type="veh_passenger"/>
    <trip id="veh170" depart="281.30" from="-648646645" to="798110186#0" departLane="best" type="veh_passenger" departSpeed="max"/>
    <trip id="veh171" depart="282.96" from="-202207741" to="169429520#1" departLane="best" type="veh_passenger" departSpeed="max"/>
    <trip id="veh172" depart="284.61" from="-523992677" to="753805280#3" departLane="best" type="veh_passenger" departSpeed="max"/>
    <trip id="veh173" depart="286.27" from="-324951800#1" to="-1111962989#0" departLane="best" type="veh_passenger"/>
    <trip id="veh174" depart="287.92" from="-58752656#2" to="1459430909#4" departLane="best" type="veh_passenger"/>
    <trip id="veh175" depart="289.58" from="180211672" to="176913253#1" departLane="best" type="veh_passenger"/>
    <trip id="veh176" depart="291.23" from="341055726#1" to="-201527636#0" departLane="best" type="veh_passenger"/>
    <trip id="veh177" depart="292.89" from="135737864" to="313035383" departLane="best" type="veh_passenger"/>
    <trip id="veh178" depart="294.54" from="341705800#1" to="257759242#4" departLane="best" type="veh_passenger"/>
    <trip id="veh179" depart="296.19" from="153237894" to="111984897#9" departLane="best" type="veh_passenger"/>
    <trip id="veh180" depart="297.85" from="4840409#2" to="202207741" departLane="best" type="veh_passenger"/>
    <trip id="veh181" depart="299.50" from="-519891668#1" to="652216913" departLane="best" type="veh_passenger"/>
    <trip id="veh182" depart="301.16" from="329411503" to="798107753" departLane="best" type="veh_passenger" departSpeed="max"/>
    <trip id="veh183" depart="302.81" from="61164307#9" to="665140596" departLane="best" type="veh_passenger"/>
    <trip id="veh184" depart="304.47" from="-4840283#1" to="-81465111#5" departLane="best" type="veh_passenger"/>
    <trip id="veh185" depart="306.12" from="798107751" to="-112449586#2" departLane="best" type="veh_passenger" departSpeed="max"/>
    <trip id="veh186" depart="307.78" from="61164307#2" to="28598668#2" departLane="best" type="veh_passenger"/>
    <trip id="veh187" depart="309.43" from="-313036038" to="202775684" departLane="best" type="veh_passenger" departSpeed="max"/>
    <trip id="veh188" depart="311.09" from="4840288#0" to="212392696#20" departLane="best" type="veh_passenger"/>
    <trip id="veh189" depart="312.74" from="24683728#13" to="-263114316#0" departLane="best" type="veh_passenger"/>
    <trip id="veh190" depart="314.40" from="-798110190#1" to="1197279441#0" departLane="best" type="veh_passenger" departSpeed="max"/>
    <trip id="veh191" depart="316.05" from="56688294#0" to="-184131273" departLane="best" type="veh_passenger"/>
    <trip id="veh192" depart="317.71" from="172656292#1" to="181394684" departLane="best" type="veh_passenger"/>
    <trip id="veh193" depart="319.36" from="-253929023#1" to="649469749" departLane="best" type="veh_passenger" departSpeed="max"/>
    <trip id="veh194" depart="321.02" from="376776844#1" to="-220294114#4" departLane="best" type="veh_passenger"/>
    <trip id="veh195" depart="322.67" from="-231414548" to="179366775" departLane="best" type="veh_passenger"/>
    <trip id="veh196" depart="324.32" from="-1459430909#7" to="-27033019#3" departLane="best" type="veh_passenger"/>
    <trip id="veh197" depart="325.98" from="-136448243#6" to="189015798" departLane="best" type="veh_passenger"/>
    <trip id="veh198" depart="327.63" from="-753805293#2" to="-135737865#2" departLane="best" type="veh_passenger"/>
    <trip id="veh199" depart="329.29" from="243517091" to="1459430908" departLane="best" type="veh_passenger" departSpeed="max"/>
    <trip id="veh200" depart="330.94" from="169994057#1" to="-4840288#1" departLane="best" type="veh_passenger"/>
    <trip id="veh201" depart="332.60" from="798110193" to="-120278037#0" departLane="best" type="veh_passenger" departSpeed="max"/>
    <trip id="veh202" depart="334.25" from="-1132359826" to="-798110190#0" departLane="best" type="veh_passenger" departSpeed="max"/>
    <trip id="veh203" depart="335.91" from="-151883457" to="-169443995#2" departLane="best" type="veh_passenger" departSpeed="max"/>
    <trip id="veh204" depart="337.56" from="180836298#3" to="151883457" departLane="best" type="veh_passenger"/>
    <trip id="veh205" depart="339.22" from="172385216#1" to="-176144622" departLane="best" type="veh_passenger"/>
    <trip id="veh206" depart="340.87" from="135739027" to="231553790#13" departLane="best" type="veh_passenger" departSpeed="max"/>
    <trip id="veh207" depart="342.53" from="-126253249#3" to="-176913253#3" departLane="best" type="veh_passenger" departSpeed="max"/>
    <trip id="veh208" depart="344.18" from="-648699881" to="-4840054#0" departLane="best" type="veh_passenger" departSpeed="max"/>
    <trip id="veh209" depart="345.84" from="24684287#3" to="168948326#4" departLane="best" type="veh_passenger"/>
    <trip id="veh210" depart="347.49" from="-649966504" to="-798110191#0" departLane="best" type="veh_passenger" departSpeed="max"/>
    <trip id="veh211" depart="349.15" from="-172333278" to="-180206104" departLane="best" type="veh_passenger"/>
    <trip id="veh212" depart="350.80" from="-196281733#1" to="-111984897#1" departLane="best" type="veh_passenger"/>
    <trip id="veh213" depart="352.46" from="-172333269#4" to="171603744#1" departLane="best" type="veh_passenger" departSpeed="max"/>
    <trip id="veh214" depart="354.11" from="-80913255#0" to="126253249#3" departLane="best" type="veh_passenger"/>
    <trip id="veh215" depart="355.76" from="112117476#3" to="169994053#2" departLane="best" type="veh_passenger"/>
    <trip id="veh216" depart="357.42" from="184131276#2" to="-324951813" departLane="best" type="veh_passenger"/>
    <trip id="veh217" depart="359.07" from="212392696#14" to="1413011910" departLane="best" type="veh_passenger"/>
    <trip id="veh218" depart="360.73" from="28579038#0" to="753805280#1" departLane="best" type="veh_passenger" departSpeed="max"/>
    <trip id="veh219" depart="362.38" from="-176913253#6" to="508291599" departLane="best" type="veh_passenger"/>
    <trip id="veh220" depart="364.04" from="135737866#0" to="508291609#2" departLane="best" type="veh_passenger" departSpeed="max"/>
    <trip id="veh221" depart="365.69" from="-1132359827" to="325666723#5" departLane="best" type="veh_passenger" departSpeed="max"/>
    <trip id="veh222" depart="367.35" from="-200393691" to="-457895834#0" departLane="best" type="veh_passenger" departSpeed="max"/>
    <trip id="veh223" depart="369.00" from="138449070" to="-550516976#0" departLane="best" type="veh_passenger"/>
    <trip id="veh224" depart="370.66" from="112117485#0" to="313035384#1" departLane="best" type="veh_passenger" departSpeed="max"/>
    <trip id="veh225" depart="372.31" from="-313035384#1" to="891858756#0" departLane="best" type="veh_passenger" departSpeed="max"/>
    <trip id="veh226" depart="373.97" from="342044138#8" to="200904705" departLane="best" type="veh_passenger"/>
    <trip id="veh227" depart="375.62" from="27033020#0" to="-112117466#0" departLane="best" type="veh_passenger" departSpeed="max"/>
    <trip id="veh228" depart="377.28" from="126253268" to="567661914#0" departLane="best" type="veh_passenger"/>
    <trip id="veh229" depart="378.93" from="-24683728#1" to="172385224#4" departLane="best" type="veh_passenger"/>
    <trip id="veh230" depart="380.59" from="-1274917531" to="220025931" departLane="best" type="veh_passenger" departSpeed="max"/>
    <trip id="veh231" depart="382.24" from="-180214606#1" to="80913255#1" departLane="best" type="veh_passenger"/>
    <trip id="veh232" depart="383.89" from="121782640#1" to="-112783312#4" departLane="best" type="veh_passenger"/>
    <trip id="veh233" depart="385.55" from="111967844#0" to="-152409656#0" departLane="best" type="veh_passenger" departSpeed="max"/>
    <trip id="veh234" depart="387.20" from="-231414548" to="180836298#1" departLane="best" type="veh_passenger"/>
    <trip id="veh235" depart="388.86" from="-126253247#0" to="302696863#2" departLane="best" type="veh_passenger"/>
    <trip id="veh236" depart="390.51" from="-224839048#0" to="-136448243#1" departLane="best" type="veh_passenger"/>
    <trip id="veh237" depart="392.17" from="111965835" to="180625654#2" departLane="best" type="veh_passenger"/>
    <trip id="veh238" depart="393.82" from="58752656#0" to="180211674" departLane="best" type="veh_passenger"/>